### 
### Created by X-TOOL on Mon Sep 10 21:12:45 2018
### 

@<TRIPOS>MOLECULE
1avn_ligand
   18    18     1     0     0
SMALL
GAST_HUCK


@<TRIPOS>ATOM
      1 N           0.4720    5.1050    9.7360 N.4       1 HSM         0.2200
      2 CA         -0.6460    5.9190   10.2390 C.3       1 HSM        -0.0241
      3 CB         -1.9700    5.5830    9.5670 C.3       1 HSM         0.0424
      4 CG         -3.1410    4.9460   10.2360 C.2       1 HSM         0.0567
      5 ND1        -3.4800    3.6270   10.0410 N.pl3     1 HSM        -0.2623
      6 CD2        -4.0830    5.4150   11.0870 C.2       1 HSM        -0.0276
      7 CE1        -4.5450    3.2880   10.7310 C.2       1 HSM         0.0875
      8 NE2        -4.9260    4.3630   11.3830 N.2       1 HSM        -0.3437
      9 H1          1.3202    5.3679   10.2130 H         1 HSM         0.1996
     10 H2          0.5815    5.2597    8.7460 H         1 HSM         0.1996
     11 H3          0.2802    4.1299    9.9046 H         1 HSM         0.1996
     12 H4         -0.4185    6.9796   10.0564 H         1 HSM         0.0837
     13 H5         -0.7473    5.7467   11.3207 H         1 HSM         0.0837
     14 H6         -1.7118    4.9142    8.7327 H         1 HSM         0.0496
     15 H7         -2.3454    6.5374    9.1693 H         1 HSM         0.0496
     16 H8         -2.9610    2.9827    9.4276 H         1 HSM         0.2386
     17 H9         -4.1613    6.4325   11.4672 H         1 HSM         0.0324
     18 H10        -5.0192    2.3080   10.7574 H         1 HSM         0.1149
@<TRIPOS>BOND
     1    1    2 1  
     2    2    3 1  
     3    3    4 1  
     4    4    6 2  
     5    4    5 1  
     6    5    7 1  
     7    7    8 2  
     8    8    6 1  
     9    1    9 1  
    10    1   10 1  
    11    1   11 1  
    12    2   12 1  
    13    2   13 1  
    14    3   14 1  
    15    3   15 1  
    16    5   16 1  
    17    6   17 1  
    18    7   18 1  
@<TRIPOS>SUBSTRUCTURE
     1 HSM         1

