### 
### Created by X-TOOL on Mon Sep 10 21:12:45 2018
### 

@<TRIPOS>MOLECULE
1add_ligand
   33    35     1     0     0
SMALL
GAST_HUCK


@<TRIPOS>ATOM
      1 O5'         8.6220   20.5190   35.3750 O.3       1 1DA        -0.3924
      2 C5'         9.2760   20.0150   36.5430 C.3       1 1DA         0.0730
      3 C4'         8.3930   19.0390   37.3130 C.3       1 1DA         0.1135
      4 O4'         7.2280   19.7130   37.8090 O.3       1 1DA        -0.3371
      5 C3'         7.8630   17.8880   36.4540 C.3       1 1DA         0.1145
      6 O3'         8.7560   16.7710   36.3720 O.3       1 1DA        -0.3864
      7 C2'         6.5540   17.5230   37.1310 C.3       1 1DA         0.1382
      8 O2'         6.9290   16.6110   38.1510 O.3       1 1DA        -0.3836
      9 C1'         6.1420   18.7850   37.8890 C.3       1 1DA         0.1993
     10 N9          4.9200   19.2740   37.3940 N.pl3     1 1DA        -0.1982
     11 C8          4.5430   19.3890   36.1080 C.2       1 1DA         0.1085
     12 N7          3.2800   19.8290   36.0060 N.2       1 1DA        -0.3023
     13 C5          2.8340   19.9040   37.2880 C.ar      1 1DA         0.0806
     14 C6          1.6200   20.2460   37.8160 C.ar      1 1DA         0.0600
     15 N6          0.5680   20.5230   37.0410 N.pl3     1 1DA        -0.3298
     16 C1          1.5020   20.2950   39.1870 C.ar      1 1DA        -0.0311
     17 C2          2.5860   20.0040   40.0050 C.ar      1 1DA        -0.0200
     18 N3          3.7490   19.6750   39.4650 N.ar      1 1DA        -0.3031
     19 C4          3.8570   19.6260   38.1290 C.ar      1 1DA         0.1456
     20 H1          8.4040   19.7960   34.7986 H         1 1DA         0.2095
     21 H2          9.5300   20.8594   37.2006 H         1 1DA         0.0584
     22 H3         10.1975   19.4969   36.2389 H         1 1DA         0.0584
     23 H4          8.9763   18.6293   38.1508 H         1 1DA         0.0647
     24 H5          7.6718   18.2459   35.4316 H         1 1DA         0.0648
     25 H6          8.9106   16.4259   37.2435 H         1 1DA         0.2100
     26 H7          5.7848   17.1402   36.4442 H         1 1DA         0.0676
     27 H8          7.3501   15.8550   37.7591 H         1 1DA         0.2101
     28 H9          5.9908   18.5296   38.9482 H         1 1DA         0.0992
     29 H10         5.1819   19.1547   35.2578 H         1 1DA         0.1334
     30 H11        -0.3338   20.7776   37.4686 H         1 1DA         0.1769
     31 H12         0.6586   20.4820   36.0158 H         1 1DA         0.1769
     32 H13         0.5515   20.5640   39.6333 H         1 1DA         0.0493
     33 H14         2.4800   20.0462   41.0830 H         1 1DA         0.0717
@<TRIPOS>BOND
     1    2    1 1  
     2    2    3 1  
     3    3    4 1  
     4    3    5 1  
     5    4    9 1  
     6    5    6 1  
     7    5    7 1  
     8    7    8 1  
     9    9    7 1  
    10    9   10 1  
    11   10   11 1  
    12   10   19 1  
    13   11   12 2  
    14   12   13 1  
    15   13   14 ar 
    16   13   19 ar 
    17   14   15 1  
    18   14   16 ar 
    19   16   17 ar 
    20   17   18 ar 
    21   18   19 ar 
    22    1   20 1  
    23    2   21 1  
    24    2   22 1  
    25    3   23 1  
    26    5   24 1  
    27    6   25 1  
    28    7   26 1  
    29    8   27 1  
    30    9   28 1  
    31   11   29 1  
    32   15   30 1  
    33   15   31 1  
    34   16   32 1  
    35   17   33 1  
@<TRIPOS>SUBSTRUCTURE
     1 1DA         1

