### 
### Created by X-TOOL on Mon Sep 10 21:12:47 2018
### 

@<TRIPOS>MOLECULE
11gs_ligand
   66    66     1     0     0
SMALL
GAST_HUCK


@<TRIPOS>ATOM
      1 N1         14.7090   10.7820   23.2520 N.4       1 GSH         0.2328
      2 CA1        14.6200    9.9440   24.4710 C.3       1 GSH         0.0304
      3 C1         15.7480    8.9120   24.4560 C.2       1 GSH         0.0846
      4 O11        16.0850    8.4010   25.5410 O.co2     1 GSH        -0.5643
      5 O12        16.3130    8.6420   23.3670 O.co2     1 GSH        -0.5643
      6 CB1        13.2690    9.2400   24.5300 C.3       1 GSH         0.0193
      7 CG1        12.9530    8.6610   25.9060 C.3       1 GSH         0.0441
      8 CD1        11.5780    8.0220   25.9870 C.2       1 GSH         0.1785
      9 OE1        10.7970    8.0380   25.0250 O.2       1 GSH        -0.3969
     10 N2         11.2470    7.5340   27.1750 N.am      1 GSH        -0.2648
     11 CA2         9.9720    6.8700   27.4160 C.3       1 GSH         0.1397
     12 C2          9.3670    7.3930   28.7190 C.2       1 GSH         0.2040
     13 O2         10.0850    7.8880   29.5910 O.2       1 GSH        -0.3944
     14 CB2        10.2030    5.3550   27.5530 C.3       1 GSH         0.0342
     15 SG2        11.4450    4.7020   26.3760 S.3       1 GSH        -0.1534
     16 N3          8.0510    7.2770   28.8380 N.am      1 GSH        -0.2722
     17 CA3         7.3820    7.6900   30.0580 C.3       1 GSH         0.0833
     18 C3          6.9000    9.1180   30.0690 C.2       1 GSH         0.0570
     19 O31         6.0060    9.4220   30.8870 O.co2     1 GSH        -0.5669
     20 O32         7.3950    9.9270   29.2540 O.co2     1 GSH        -0.5669
     21 C1          5.7920    2.7370   28.0810 C.ar      1 EAA         0.1140
     22 O2          5.1050    2.1790   29.1650 O.3       1 EAA        -0.2994
     23 C2          7.1260    2.3100   27.8760 C.ar      1 EAA         0.0882
     24 C3          7.8880    2.8040   26.8050 C.ar      1 EAA         0.0653
     25 C4          7.3230    3.7760   25.8990 C.ar      1 EAA         0.0358
     26 C5          5.9880    4.1980   26.1300 C.ar      1 EAA        -0.0509
     27 C6          5.2430    3.6890   27.1990 C.ar      1 EAA        -0.0256
     28 C7          8.0950    4.3720   24.7030 C.2       1 EAA         0.1289
     29 O1          7.5850    5.1970   23.9310 O.2       1 EAA        -0.3837
     30 C8          9.6100    3.9850   24.4110 C.3       1 EAA         0.0409
     31 C9          9.8770    3.3130   23.0520 C.3       1 EAA        -0.0371
     32 C10        11.1860    2.5160   22.9220 C.3       1 EAA        -0.0630
     33 C11        10.6730    5.0250   24.7730 C.3       1 EAA         0.0117
     34 C12         4.0210    1.1970   29.0350 C.3       1 EAA         0.1241
     35 C13         3.8530    0.2730   30.2430 C.2       1 EAA         0.0656
     36 O           4.7490   -0.5720   30.4860 O.co2     1 EAA        -0.5662
     37 OXT         2.8040    0.3540   30.9250 O.co2     1 EAA        -0.5662
     38 CL1         7.8760    1.1450   28.9840 Cl        1 EAA        -0.0767
     39 CL2         9.5230    2.1350   26.6450 Cl        1 EAA        -0.0664
     40 H1         13.9667   11.4639   23.2582 H         1 GSH         0.2010
     41 H2         14.6216   10.1976   22.4354 H         1 GSH         0.2010
     42 H3         15.5992   11.2545   23.2333 H         1 GSH         0.2010
     43 H4         14.7284   10.5851   25.3582 H         1 GSH         0.1026
     44 H5         13.2699    8.4196   23.7972 H         1 GSH         0.0363
     45 H6         12.4849    9.9654   24.2674 H         1 GSH         0.0363
     46 H7         13.0051    9.4725   26.6467 H         1 GSH         0.0505
     47 H8         13.7076    7.8972   26.1452 H         1 GSH         0.0505
     48 H9         11.8946    7.6247   27.9316 H         1 GSH         0.1883
     49 H10         9.2861    7.0690   26.5794 H         1 GSH         0.0808
     50 H11         9.2481    4.8387   27.3750 H         1 GSH         0.0424
     51 H12        10.5479    5.1456   28.5763 H         1 GSH         0.0424
     52 H13         7.5156    6.9020   28.0812 H         1 GSH         0.1873
     53 H14         8.0859    7.5612   30.8934 H         1 GSH         0.0689
     54 H15         6.5111    7.0350   30.2080 H         1 GSH         0.0689
     55 H16         5.5377    4.9275   25.4666 H         1 GSH         0.0647
     56 H17         4.2263    4.0327   27.3514 H         1 GSH         0.0559
     57 H18         9.7941    3.1773   25.1346 H         1 GSH         0.0526
     58 H19         9.8899    4.1026   22.2863 H         1 GSH         0.0289
     59 H20         9.0447    2.6221   22.8523 H         1 GSH         0.0289
     60 H21        11.2564    2.0891   21.9107 H         1 GSH         0.0231
     61 H22        11.1963    1.7042   23.6641 H         1 GSH         0.0231
     62 H23        12.0415    3.1847   23.0981 H         1 GSH         0.0231
     63 H24        10.1990    6.0171   24.8039 H         1 GSH         0.0403
     64 H25        11.4535    5.0155   23.9979 H         1 GSH         0.0403
     65 H26         4.2260    0.5740   28.1519 H         1 GSH         0.0788
     66 H27         3.0781    1.7438   28.8871 H         1 GSH         0.0788
@<TRIPOS>BOND
     1    2    1 1  
     2    6    2 1  
     3    2    3 1  
     4    3    5 ar 
     5    3    4 ar 
     6    7    6 1  
     7    8    7 1  
     8   10    8 am 
     9    8    9 2  
    10   11   10 1  
    11   14   11 1  
    12   11   12 1  
    13   12   16 am 
    14   12   13 2  
    15   16   17 1  
    16   17   18 1  
    17   18   20 ar 
    18   18   19 ar 
    19   15   14 1  
    20   27   21 ar 
    21   23   21 ar 
    22   21   22 1  
    23   22   34 1  
    24   34   35 1  
    25   35   37 ar 
    26   35   36 ar 
    27   24   23 ar 
    28   25   24 ar 
    29   28   25 1  
    30   25   26 ar 
    31   26   27 ar 
    32   30   28 1  
    33   28   29 2  
    34   33   30 1  
    35   30   31 1  
    36   31   32 1  
    37   23   38 1  
    38   24   39 1  
    39   33   15 1  
    40    1   40 1  
    41    1   41 1  
    42    1   42 1  
    43    2   43 1  
    44    6   44 1  
    45    6   45 1  
    46    7   46 1  
    47    7   47 1  
    48   10   48 1  
    49   11   49 1  
    50   14   50 1  
    51   14   51 1  
    52   16   52 1  
    53   17   53 1  
    54   17   54 1  
    55   26   55 1  
    56   27   56 1  
    57   30   57 1  
    58   31   58 1  
    59   31   59 1  
    60   32   60 1  
    61   32   61 1  
    62   32   62 1  
    63   33   63 1  
    64   33   64 1  
    65   34   65 1  
    66   34   66 1  
@<TRIPOS>SUBSTRUCTURE
     1 GSH         1

