### 
### Created by X-TOOL on Mon Sep 10 21:12:47 2018
### 

@<TRIPOS>MOLECULE
13gs_ligand
   41    43     1     0     0
SMALL
GAST_HUCK


@<TRIPOS>ATOM
      1 C1          5.8670   -2.5540   31.8180 C.ar      1 SAS         0.1338
      2 C2          7.1800   -2.7850   32.3140 C.ar      1 SAS        -0.0176
      3 C3          7.8020   -3.9490   31.8790 C.ar      1 SAS        -0.0586
      4 C4          7.1330   -4.8190   30.9940 C.ar      1 SAS        -0.0524
      5 C5          5.8130   -4.5360   30.5330 C.ar      1 SAS        -0.0099
      6 N1          5.2380   -3.4050   30.9670 N.ar      1 SAS        -0.2899
      7 N2          5.2110   -1.4210   32.1920 N.am      1 SAS        -0.1690
      8 S1          5.8290    0.1150   32.4160 S.o2      1 SAS         0.0940
      9 O1          7.0230   -0.0030   33.4960 O.2       1 SAS        -0.1435
     10 O2          4.5660    0.8990   32.9650 O.2       1 SAS        -0.1435
     11 C6          6.2720    0.8680   30.9180 C.ar      1 SAS         0.1181
     12 C7          7.5860    0.7200   30.4370 C.ar      1 SAS        -0.0291
     13 C8          7.9780    1.3990   29.2670 C.ar      1 SAS        -0.0320
     14 C9          7.0420    2.2260   28.5850 C.ar      1 SAS         0.0744
     15 C10         5.6770    2.3740   29.0760 C.ar      1 SAS        -0.0320
     16 C11         5.2940    1.6840   30.2540 C.ar      1 SAS        -0.0291
     17 N3          7.5330    2.8070   27.5840 N.2       1 SAS        -0.1814
     18 N4          6.8870    3.6750   26.7290 N.2       1 SAS        -0.1818
     19 C12         7.2760    4.3130   25.7040 C.ar      1 SAS         0.0737
     20 C13         8.6210    4.2950   25.2270 C.ar      1 SAS        -0.0241
     21 C14         9.0530    5.0660   24.0980 C.ar      1 SAS         0.0474
     22 C15         8.0250    5.9100   23.4420 C.ar      1 SAS         0.1106
     23 C16         6.6870    5.9210   23.9130 C.ar      1 SAS        -0.0206
     24 C17         6.3150    5.1350   25.0330 C.ar      1 SAS        -0.0361
     25 C18        10.5100    4.9270   23.6970 C.2       1 SAS         0.0601
     26 O3          8.1980    6.7580   22.3650 O.3       1 SAS        -0.3246
     27 O4         11.3020    4.1720   24.3260 O.co2     1 SAS        -0.5639
     28 O5         10.9540    5.5790   22.7260 O.co2     1 SAS        -0.5639
     29 H1          7.6670   -2.0933   32.9918 H         1 SAS         0.0577
     30 H2          8.8026   -4.1883   32.2205 H         1 SAS         0.0685
     31 H3          7.6315   -5.7207   30.6572 H         1 SAS         0.0562
     32 H4          5.2953   -5.2085   29.8586 H         1 SAS         0.0768
     33 H5          4.2294   -1.5215   32.3541 H         1 SAS         0.2229
     34 H6          8.2918    0.0877   30.9634 H         1 SAS         0.0647
     35 H7          8.9879    1.2922   28.8878 H         1 SAS         0.0665
     36 H8          4.9669    3.0011   28.5492 H         1 SAS         0.0665
     37 H9          4.2864    1.7703   30.6445 H         1 SAS         0.0647
     38 H10         9.3458    3.6728   25.7394 H         1 SAS         0.0690
     39 H11         5.9449    6.5336   23.4140 H         1 SAS         0.0572
     40 H12         5.2902    5.1568   25.3855 H         1 SAS         0.0674
     41 H13         9.1031    6.7237   22.0785 H         1 SAS         0.2529
@<TRIPOS>BOND
     1    1    2 ar 
     2    1    6 ar 
     3    1    7 1  
     4    2    3 ar 
     5    3    4 ar 
     6    4    5 ar 
     7    5    6 ar 
     8    7    8 am 
     9    8    9 2  
    10    8   10 2  
    11    8   11 1  
    12   11   12 ar 
    13   11   16 ar 
    14   12   13 ar 
    15   13   14 ar 
    16   14   15 ar 
    17   14   17 1  
    18   15   16 ar 
    19   17   18 2  
    20   18   19 1  
    21   19   20 ar 
    22   19   24 ar 
    23   20   21 ar 
    24   21   22 ar 
    25   21   25 1  
    26   22   23 ar 
    27   22   26 1  
    28   23   24 ar 
    29   25   27 ar 
    30   25   28 ar 
    31    2   29 1  
    32    3   30 1  
    33    4   31 1  
    34    5   32 1  
    35    7   33 1  
    36   12   34 1  
    37   13   35 1  
    38   15   36 1  
    39   16   37 1  
    40   20   38 1  
    41   23   39 1  
    42   24   40 1  
    43   26   41 1  
@<TRIPOS>SUBSTRUCTURE
     1 SAS         1

