### 
### Created by X-TOOL on Mon Sep 10 21:12:45 2018
### 

@<TRIPOS>MOLECULE
184l_ligand
   24    24     1     0     0
SMALL
GAST_HUCK


@<TRIPOS>ATOM
      1 C1         27.3570    6.7720    3.3880 C.ar      1 I4B        -0.0428
      2 C2         27.3210    7.2930    4.6580 C.ar      1 I4B        -0.0603
      3 C3         26.5680    6.6500    5.6700 C.ar      1 I4B        -0.0686
      4 C4         25.8310    5.5260    5.3590 C.ar      1 I4B        -0.0687
      5 C5         25.8870    4.9870    4.0770 C.ar      1 I4B        -0.0686
      6 C6         26.6640    5.6070    3.0880 C.ar      1 I4B        -0.0603
      7 C1'        28.1350    7.4950    2.3350 C.3       1 I4B        -0.0168
      8 C2'        27.1650    8.3380    1.5330 C.3       1 I4B        -0.0370
      9 C3'        27.8680    8.7990    0.2910 C.3       1 I4B        -0.0609
     10 C4'        26.6640    9.5080    2.3390 C.3       1 I4B        -0.0609
     11 H1         27.8706    8.1990    4.8864 H         1 I4B         0.0557
     12 H2         26.5706    7.0382    6.6821 H         1 I4B         0.0599
     13 H3         25.2073    5.0618    6.1144 H         1 I4B         0.0559
     14 H4         25.3295    4.0873    3.8429 H         1 I4B         0.0599
     15 H5         26.7233    5.1787    2.0940 H         1 I4B         0.0557
     16 H6         28.6335    6.7698    1.6750 H         1 I4B         0.0428
     17 H7         28.8901    8.1413    2.8063 H         1 I4B         0.0428
     18 H8         26.3023    7.7180    1.2478 H         1 I4B         0.0317
     19 H9         27.1834    9.4149   -0.3106 H         1 I4B         0.0234
     20 H10        28.1865    7.9249   -0.2959 H         1 I4B         0.0234
     21 H11        28.7496    9.3954    0.5686 H         1 I4B         0.0234
     22 H12        26.1541    9.1400    3.2416 H         1 I4B         0.0234
     23 H13        25.9584   10.0954    1.7331 H         1 I4B         0.0234
     24 H14        27.5136   10.1428    2.6309 H         1 I4B         0.0234
@<TRIPOS>BOND
     1    1    2 ar 
     2    1    6 ar 
     3    1    7 1  
     4    2    3 ar 
     5    3    4 ar 
     6    4    5 ar 
     7    5    6 ar 
     8    7    8 1  
     9    8    9 1  
    10    8   10 1  
    11    2   11 1  
    12    3   12 1  
    13    4   13 1  
    14    5   14 1  
    15    6   15 1  
    16    7   16 1  
    17    7   17 1  
    18    8   18 1  
    19    9   19 1  
    20    9   20 1  
    21    9   21 1  
    22   10   22 1  
    23   10   23 1  
    24   10   24 1  
@<TRIPOS>SUBSTRUCTURE
     1 I4B         1

