### 
### Created by X-TOOL on Mon Sep 10 21:12:45 2018
### 

@<TRIPOS>MOLECULE
185l_ligand
   16    17     1     0     0
SMALL
GAST_HUCK


@<TRIPOS>ATOM
      1 N1         28.5560    7.3580    3.1830 N.pl3     1 IND        -0.2799
      2 C2         28.3670    6.5900    2.0680 C.2       1 IND         0.0213
      3 C3         27.4810    5.6010    2.3230 C.2       1 IND        -0.0640
      4 C4         26.1410    5.1180    4.4680 C.ar      1 IND        -0.0752
      5 C5         26.0020    5.5250    5.7650 C.ar      1 IND        -0.0790
      6 C6         26.7180    6.5870    6.2770 C.ar      1 IND        -0.0764
      7 C7         27.5970    7.2920    5.5050 C.ar      1 IND        -0.0433
      8 C8         27.7470    6.8770    4.1890 C.ar      1 IND         0.0635
      9 C9         27.0540    5.7730    3.6750 C.ar      1 IND        -0.0279
     10 H1         29.1960    8.1615    3.2583 H         1 IND         0.2268
     11 H2         28.8600    6.7518    1.1105 H         1 IND         0.0932
     12 H3         27.1562    4.8245    1.6320 H         1 IND         0.0285
     13 H4         25.5475    4.3007    4.0746 H         1 IND         0.0535
     14 H5         25.3088    4.9978    6.4104 H         1 IND         0.0515
     15 H6         26.5801    6.8682    7.3148 H         1 IND         0.0530
     16 H7         28.1510    8.1353    5.9012 H         1 IND         0.0544
@<TRIPOS>BOND
     1    2    1 1  
     2    1    8 1  
     3    3    2 2  
     4    9    3 1  
     5    4    5 ar 
     6    4    9 ar 
     7    5    6 ar 
     8    6    7 ar 
     9    7    8 ar 
    10    8    9 ar 
    11    1   10 1  
    12    2   11 1  
    13    3   12 1  
    14    4   13 1  
    15    5   14 1  
    16    6   15 1  
    17    7   16 1  
@<TRIPOS>SUBSTRUCTURE
     1 IND         1

