### 
### Created by X-TOOL on Mon Sep 10 21:12:45 2018
### 

@<TRIPOS>MOLECULE
186l_ligand
   24    24     1     0     0
SMALL
GAST_HUCK


@<TRIPOS>ATOM
      1 C1         27.5330    7.0610    3.9520 C.ar      1 N4B        -0.0430
      2 C2         26.9940    7.0690    5.2570 C.ar      1 N4B        -0.0603
      3 C3         26.1900    6.0370    5.6740 C.ar      1 N4B        -0.0686
      4 C4         25.8970    5.0000    4.8010 C.ar      1 N4B        -0.0687
      5 C5         26.4420    4.9870    3.5500 C.ar      1 N4B        -0.0686
      6 C6         27.2550    6.0160    3.1200 C.ar      1 N4B        -0.0603
      7 C1'        28.3470    8.2100    3.4230 C.3       1 N4B        -0.0192
      8 C2'        27.4170    9.3750    3.0960 C.3       1 N4B        -0.0435
      9 C3'        26.6450    9.1420    1.8090 C.3       1 N4B        -0.0541
     10 C4'        27.5330    9.0850    0.6020 C.3       1 N4B        -0.0651
     11 H1         27.2149    7.8898    5.9297 H         1 N4B         0.0557
     12 H2         25.7865    6.0328    6.6801 H         1 N4B         0.0599
     13 H3         25.2352    4.1999    5.1123 H         1 N4B         0.0559
     14 H4         26.2335    4.1569    2.8848 H         1 N4B         0.0599
     15 H5         27.6732    5.9939    2.1201 H         1 N4B         0.0557
     16 H6         28.8779    7.8962    2.5121 H         1 N4B         0.0426
     17 H7         29.0772    8.5244    4.1832 H         1 N4B         0.0426
     18 H8         28.0179   10.2901    2.9890 H         1 N4B         0.0287
     19 H9         26.7012    9.5008    3.9217 H         1 N4B         0.0287
     20 H10        25.9250    9.9631    1.6773 H         1 N4B         0.0264
     21 H11        26.1028    8.1885    1.8919 H         1 N4B         0.0264
     22 H12        26.9207    8.9151   -0.2959 H         1 N4B         0.0230
     23 H13        28.2537    8.2618    0.7155 H         1 N4B         0.0230
     24 H14        28.0759   10.0363    0.5009 H         1 N4B         0.0230
@<TRIPOS>BOND
     1    1    2 ar 
     2    1    6 ar 
     3    1    7 1  
     4    2    3 ar 
     5    3    4 ar 
     6    4    5 ar 
     7    5    6 ar 
     8    7    8 1  
     9    8    9 1  
    10    9   10 1  
    11    2   11 1  
    12    3   12 1  
    13    4   13 1  
    14    5   14 1  
    15    6   15 1  
    16    7   16 1  
    17    7   17 1  
    18    8   18 1  
    19    8   19 1  
    20    9   20 1  
    21    9   21 1  
    22   10   22 1  
    23   10   23 1  
    24   10   24 1  
@<TRIPOS>SUBSTRUCTURE
     1 N4B         1

