### 
### Created by X-TOOL on Mon Sep 10 21:12:45 2018
### 

@<TRIPOS>MOLECULE
187l_ligand
   18    18     1     0     0
SMALL
GAST_HUCK


@<TRIPOS>ATOM
      1 C1         26.6450    6.1410    4.6680 C.ar      1 PXY        -0.0528
      2 C2         26.7810    5.6710    3.4440 C.ar      1 PXY        -0.0671
      3 C3         27.2700    6.4720    2.4350 C.ar      1 PXY        -0.0671
      4 C4         27.5830    7.7750    2.6860 C.ar      1 PXY        -0.0528
      5 C5         27.4420    8.2660    3.9390 C.ar      1 PXY        -0.0671
      6 C6         26.9790    7.4340    4.9470 C.ar      1 PXY        -0.0671
      7 C1'        26.1370    5.2260    5.7700 C.3       1 PXY        -0.0343
      8 C4'        28.1020    8.6640    1.5520 C.3       1 PXY        -0.0343
      9 H1         26.5056    4.6448    3.2292 H         1 PXY         0.0540
     10 H2         27.4061    6.0652    1.4395 H         1 PXY         0.0540
     11 H3         27.6886    9.2997    4.1527 H         1 PXY         0.0540
     12 H4         26.8823    7.8116    5.9585 H         1 PXY         0.0540
     13 H5         25.9228    4.2316    5.3513 H         1 PXY         0.0378
     14 H6         25.2175    5.6477    6.2020 H         1 PXY         0.0378
     15 H7         26.9030    5.1363    6.5543 H         1 PXY         0.0378
     16 H8         28.1434    8.0820    0.6195 H         1 PXY         0.0378
     17 H9         29.1097    9.0271    1.8026 H         1 PXY         0.0378
     18 H10        27.4257    9.5214    1.4194 H         1 PXY         0.0378
@<TRIPOS>BOND
     1    1    2 ar 
     2    1    6 ar 
     3    1    7 1  
     4    2    3 ar 
     5    3    4 ar 
     6    4    5 ar 
     7    4    8 1  
     8    5    6 ar 
     9    2    9 1  
    10    3   10 1  
    11    5   11 1  
    12    6   12 1  
    13    7   13 1  
    14    7   14 1  
    15    7   15 1  
    16    8   16 1  
    17    8   17 1  
    18    8   18 1  
@<TRIPOS>SUBSTRUCTURE
     1 PXY         1

