### 
### Created by X-TOOL on Mon Sep 10 21:12:46 2018
### 

@<TRIPOS>MOLECULE
1a07_ligand
   74    74     1     0     0
SMALL
GAST_HUCK


@<TRIPOS>ATOM
      1 H1         44.0322  -10.1707   36.8725 H         1 ACE         0.0467
      2 H2         45.6471   -9.4170   36.6477 H         1 ACE         0.0467
      3 H3         44.2461   -8.8444   35.6801 H         1 ACE         0.0467
      4 H4         42.8260   -9.4888   38.3338 H         1 PTR         0.1884
      5 H5         43.1727   -6.8535   39.6658 H         1 PTR         0.0823
      6 H6         40.8677   -7.1581   40.4448 H         1 PTR         0.0474
      7 H7         40.7810   -8.7401   39.5984 H         1 PTR         0.0474
      8 H8         40.0332   -8.8187   37.4226 H         1 PTR         0.0557
      9 H9         41.4642   -5.1232   38.9472 H         1 PTR         0.0557
     10 H10        39.1761   -7.6553   35.4204 H         1 PTR         0.0599
     11 H11        40.6374   -3.9542   36.9612 H         1 PTR         0.0599
     12 H12        39.4435   -5.2128   35.2295 H         1 PTR         0.0559
     13 H13        43.2470   -6.7506   41.6804 H         1 GLU         0.1883
     14 H14        44.2386   -8.9750   43.2447 H         1 GLU         0.0801
     15 H15        44.3863   -7.2980   45.0089 H         1 GLU         0.0330
     16 H16        43.3851   -6.1613   44.0434 H         1 GLU         0.0330
     17 H17        45.6855   -5.5308   43.8641 H         1 GLU         0.0433
     18 H18        45.1182   -6.1782   42.2874 H         1 GLU         0.0433
     19 H19        43.2905  -10.2788   46.5386 H         1 DIP         0.0522
     20 H20        44.2758   -9.5157   45.2449 H         1 DIP         0.0522
     21 H21        43.0164  -11.1400   43.6269 H         1 DIP         0.0285
     22 H22        42.5645  -12.0428   45.1126 H         1 DIP         0.0285
     23 H23        44.7906  -12.6765   45.5452 H         1 DIP         0.0266
     24 H24        45.4703  -11.3351   44.5627 H         1 DIP         0.0266
     25 H25        44.3232  -12.1970   42.5522 H         1 DIP         0.0263
     26 H26        43.5729  -13.5079   43.5245 H         1 DIP         0.0263
     27 H27        45.4843  -14.3613   42.1896 H         1 DIP         0.0230
     28 H28        45.8246  -14.4818   43.9492 H         1 DIP         0.0230
     29 H29        46.5750  -13.1709   42.9769 H         1 DIP         0.0230
     30 H30        40.7356  -10.6738   45.8215 H         1 DIP         0.0522
     31 H31        40.0894   -9.1381   45.1502 H         1 DIP         0.0522
     32 H32        42.0801   -9.2169   47.4451 H         1 DIP         0.0285
     33 H33        40.3064   -9.3117   47.7126 H         1 DIP         0.0285
     34 H34        40.0337   -7.1175   46.5986 H         1 DIP         0.0266
     35 H35        41.8133   -7.0210   46.3741 H         1 DIP         0.0266
     36 H36        42.1114   -7.3513   48.8240 H         1 DIP         0.0263
     37 C          44.2370   -8.2120   37.7350 C.2       1 ACE         0.1752
     38 O          44.7330   -7.0880   37.6820 O.2       1 ACE        -0.3972
     39 CH3        44.5630   -9.2310   36.6600 C.3       1 ACE         0.0258
     40 N          43.2450   -8.6020   38.5290 N.am      1 PTR        -0.2640
     41 CA         42.7180   -7.8550   39.6520 C.3       1 PTR         0.1404
     42 C          43.0310   -8.5870   40.9380 C.2       1 PTR         0.2060
     43 O          42.9840   -9.8300   41.0350 O.2       1 PTR        -0.3942
     44 CB         41.2230   -7.7330   39.5770 C.3       1 PTR         0.0214
     45 CG         40.7870   -7.0350   38.3170 C.ar      1 PTR        -0.0386
     46 CD1        40.1550   -7.7460   37.3250 C.ar      1 PTR        -0.0601
     47 CD2        40.9540   -5.6820   38.1710 C.ar      1 PTR        -0.0601
     48 CE1        39.6750   -7.0980   36.2050 C.ar      1 PTR        -0.0686
     49 CE2        40.4900   -5.0230   37.0660 C.ar      1 PTR        -0.0686
     50 CZ         39.8380   -5.7310   36.0960 C.ar      1 PTR        -0.0687
     51 H37        40.3258   -7.3578   49.0200 H         1 DIP         0.0263
     52 N          43.2610   -7.7270   41.8960 N.am      1 GLU        -0.2635
     53 CA         43.5320   -8.1320   43.2420 C.3       1 GLU         0.1325
     54 C          42.2220   -8.5590   43.8920 C.2       1 GLU         0.2042
     55 O          41.1700   -8.1200   43.4080 O.2       1 GLU        -0.3943
     56 CB         44.1300   -6.9690   43.9910 C.3       1 GLU        -0.0008
     57 CG         45.3750   -6.4380   43.3250 C.3       1 GLU         0.0044
     58 CD         46.5620   -7.3880   43.2880 C.2       1 GLU         0.0350
     59 OE1        46.9350   -7.9210   44.3350 O.co2     1 GLU        -0.5690
     60 OE2        47.1520   -7.5390   42.2180 O.co2     1 GLU        -0.5690
     61 H38        41.2764   -5.1223   49.5235 H         1 DIP         0.0230
     62 N          42.1750   -9.3920   44.9650 N.am      1 DIP        -0.2713
     63 C1         43.3590  -10.0850   45.4580 C.3       1 DIP         0.0339
     64 C2         43.3090  -11.3700   44.6620 C.3       1 DIP        -0.0325
     65 C3         44.6400  -12.0510   44.6530 C.3       1 DIP        -0.0515
     66 C4         44.4660  -12.8770   43.4050 C.3       1 DIP        -0.0558
     67 C5         45.6740  -13.7880   43.1090 C.3       1 DIP        -0.0653
     68 C1'        40.9270   -9.5980   45.6950 C.3       1 DIP         0.0339
     69 C2'        41.0950   -8.9380   47.0430 C.3       1 DIP        -0.0325
     70 C3'        41.0080   -7.4330   47.0000 C.3       1 DIP        -0.0515
     71 C4'        41.1620   -6.9710   48.4190 C.3       1 DIP        -0.0558
     72 C5'        41.1630   -5.4480   48.4790 C.3       1 DIP        -0.0653
     73 H39        40.2139   -5.0645   48.0764 H         1 DIP         0.0230
     74 H40        41.9994   -5.0580   47.8805 H         1 DIP         0.0230
@<TRIPOS>BOND
     1   39    1 1  
     2   39    2 1  
     3   39    3 1  
     4   40    4 1  
     5   41    5 1  
     6   44    6 1  
     7   44    7 1  
     8   46    8 1  
     9   47    9 1  
    10   48   10 1  
    11   49   11 1  
    12   50   12 1  
    13   52   13 1  
    14   53   14 1  
    15   56   15 1  
    16   56   16 1  
    17   57   17 1  
    18   57   18 1  
    19   63   19 1  
    20   63   20 1  
    21   64   21 1  
    22   64   22 1  
    23   65   23 1  
    24   65   24 1  
    25   66   25 1  
    26   66   26 1  
    27   67   27 1  
    28   67   28 1  
    29   67   29 1  
    30   68   30 1  
    31   68   31 1  
    32   69   32 1  
    33   69   33 1  
    34   37   38 2  
    35   37   39 1  
    36   70   34 1  
    37   41   40 1  
    38   41   44 1  
    39   42   41 1  
    40   42   43 2  
    41   44   45 1  
    42   45   47 ar 
    43   45   46 ar 
    44   46   48 ar 
    45   48   50 ar 
    46   49   50 ar 
    47   47   49 ar 
    48   54   53 1  
    49   53   56 1  
    50   53   52 1  
    51   70   35 1  
    52   56   57 1  
    53   57   58 1  
    54   58   59 ar 
    55   58   60 ar 
    56   54   55 2  
    57   62   68 1  
    58   62   63 1  
    59   63   64 1  
    60   64   65 1  
    61   65   66 1  
    62   66   67 1  
    63   68   69 1  
    64   69   70 1  
    65   70   71 1  
    66   71   72 1  
    67   71   36 1  
    68   71   51 1  
    69   72   61 1  
    70   40   37 am 
    71   52   42 am 
    72   54   62 am 
    73   72   73 1  
    74   72   74 1  
@<TRIPOS>SUBSTRUCTURE
     1 ACE         1

