#	Name:			1a0t_ligand
#	Creating user name:	wangrx
#	Creation time:		Mon Sep 10 20:44:47 2018

#	Modifying user name:	wangrx
#	Modification time:	Mon Sep 10 20:46:03 2018

@<TRIPOS>MOLECULE
1a0t_ligand
   45    46     1     0     0
SMALL
GAST_HUCK


@<TRIPOS>ATOM
      1 C1        -44.9520  -14.6450  -14.2580 C.3       1 SUC         0.1912 
      2 C2        -43.9740  -15.8130  -14.4360 C.3       1 SUC         0.1342 
      3 C3        -44.3250  -16.9490  -13.4760 C.3       1 SUC         0.1141 
      4 C4        -44.2860  -16.4420  -12.0850 C.3       1 SUC         0.1119 
      5 C5        -45.2770  -15.3040  -11.9210 C.3       1 SUC         0.1130 
      6 C6        -45.2450  -14.7580  -10.5290 C.3       1 SUC         0.0730 
      7 O1        -46.2730  -15.0610  -14.6480 O.3       1 SUC        -0.3125 
      8 O2        -43.9850  -16.2330  -15.8010 O.3       1 SUC        -0.3841 
      9 O3        -43.3750  -17.9870  -13.6420 O.3       1 SUC        -0.3864 
     10 O4        -44.6130  -17.5380  -11.1870 O.3       1 SUC        -0.3865 
     11 O5        -44.9180  -14.2440  -12.8600 O.3       1 SUC        -0.3404 
     12 O6        -46.1150  -15.5190   -9.6790 O.3       1 SUC        -0.3924 
     13 C1'       -47.2710  -13.5190  -16.2880 C.3       1 SUC         0.1009 
     14 C2'       -47.2900  -14.0250  -14.8500 C.3       1 SUC         0.2252 
     15 C3'       -48.6560  -14.5810  -14.3610 C.3       1 SUC         0.1395 
     16 C4'       -48.6700  -14.1750  -12.9030 C.3       1 SUC         0.1145 
     17 C5'       -48.0640  -12.7740  -13.0260 C.3       1 SUC         0.1134 
     18 C6'       -47.5100  -12.1450  -11.7790 C.3       1 SUC         0.0730 
     19 O1'       -48.4900  -12.8180  -16.5360 O.3       1 SUC        -0.3896 
     20 O2'       -47.0210  -12.9340  -14.0020 O.3       1 SUC        -0.3362 
     21 O3'       -48.8650  -15.9510  -14.6060 O.3       1 SUC        -0.3837 
     22 O4'       -50.0050  -14.1820  -12.3880 O.3       1 SUC        -0.3864 
     23 O6'       -47.9020  -12.8310  -10.6210 O.3       1 SUC        -0.3924 
     24 H1        -44.6402  -13.7994  -14.8886 H         1 SUC         0.0939 
     25 H2        -42.9602  -15.4626  -14.1923 H         1 SUC         0.0671 
     26 H3        -45.3323  -17.3297  -13.7004 H         1 SUC         0.0648 
     27 H4        -43.2750  -16.0734  -11.8571 H         1 SUC         0.0647 
     28 H5        -46.2907  -15.6689  -12.1427 H         1 SUC         0.0647 
     29 H6        -45.5760  -13.7091  -10.5422 H         1 SUC         0.0584 
     30 H7        -44.2175  -14.8134  -10.1403 H         1 SUC         0.0584 
     31 H8        -44.8511  -16.5518  -16.0261 H         1 SUC         0.2101 
     32 H9        -43.4081  -18.3049  -14.5366 H         1 SUC         0.2100 
     33 H10       -44.5830  -17.2298  -10.2889 H         1 SUC         0.2100 
     34 H11       -45.8294  -16.4250   -9.6652 H         1 SUC         0.2095 
     35 H12       -47.1845  -14.3697  -16.9799 H         1 SUC         0.0612 
     36 H13       -46.4169  -12.8410  -16.4319 H         1 SUC         0.0612 
     37 H14       -49.4632  -14.0473  -14.8840 H         1 SUC         0.0675 
     38 H15       -48.0401  -14.8320  -12.2853 H         1 SUC         0.0648 
     39 H16       -48.8381  -12.0959  -13.4145 H         1 SUC         0.0647 
     40 H17       -47.8703  -11.1077  -11.7153 H         1 SUC         0.0584 
     41 H18       -46.4116  -12.1487  -11.8382 H         1 SUC         0.0584 
     42 H19       -48.4927  -12.4962  -17.4299 H         1 SUC         0.2096 
     43 H20       -49.7128  -16.2073  -14.2623 H         1 SUC         0.2101 
     44 H21       -50.3191  -15.0772  -12.3376 H         1 SUC         0.2100 
     45 H22       -47.5896  -13.7271  -10.6641 H         1 SUC         0.2095 
@<TRIPOS>BOND
     1    1    2 1    
     2    1    7 1    
     3    1   11 1    
     4    2    3 1    
     5    2    8 1    
     6    3    4 1    
     7    3    9 1    
     8    4    5 1    
     9    4   10 1    
    10    5    6 1    
    11    5   11 1    
    12    6   12 1    
    13    7   14 1    
    14   14   13 1    
    15   13   19 1    
    16   14   15 1    
    17   14   20 1    
    18   15   16 1    
    19   15   21 1    
    20   16   17 1    
    21   16   22 1    
    22   17   18 1    
    23   17   20 1    
    24   18   23 1    
    25    1   24 1    
    26    2   25 1    
    27    3   26 1    
    28    4   27 1    
    29    5   28 1    
    30    6   29 1    
    31    6   30 1    
    32    8   31 1    
    33    9   32 1    
    34   10   33 1    
    35   12   34 1    
    36   13   35 1    
    37   13   36 1    
    38   15   37 1    
    39   16   38 1    
    40   17   39 1    
    41   18   40 1    
    42   18   41 1    
    43   19   42 1    
    44   21   43 1    
    45   22   44 1    
    46   23   45 1    
@<TRIPOS>SUBSTRUCTURE
     1 SUC         1 PERM              0 ****  ****    0 ROOT 
