### 
### Created by X-TOOL on Mon Sep 10 21:12:46 2018
### 

@<TRIPOS>MOLECULE
1a28_ligand
   53    56     1     0     0
SMALL
GAST_HUCK


@<TRIPOS>ATOM
      1 C1         21.2060    9.9350   63.0810 C.3       1 STR        -0.0611
      2 C2         21.2410    9.4460   64.5510 C.3       1 STR         0.0243
      3 C3         22.0000    8.1250   64.6300 C.2       1 STR         0.1764
      4 O3         21.7010    7.3010   65.5120 O.2       1 STR        -0.3440
      5 C4         23.1180    7.8720   63.7340 C.2       1 STR         0.0476
      6 C5         23.4530    8.7270   62.7850 C.2       1 STR        -0.0413
      7 C6         24.6970    8.4430   61.9510 C.3       1 STR        -0.0169
      8 C7         24.4490    8.6370   60.4430 C.3       1 STR        -0.0393
      9 C8         23.7890    9.9970   60.0980 C.3       1 STR        -0.0416
     10 C9         22.4340   10.0950   60.8720 C.3       1 STR        -0.0619
     11 C10        22.6140   10.0230   62.4340 C.3       1 STR        -0.0378
     12 C11        21.6330   11.3540   60.4500 C.3       1 STR        -0.0582
     13 C12        21.4320   11.4340   58.9110 C.3       1 STR        -0.0456
     14 C13        22.7860   11.4040   58.1690 C.3       1 STR        -0.0105
     15 C14        23.4830   10.0600   58.5980 C.3       1 STR        -0.0308
     16 C15        24.6740    9.9180   57.6180 C.3       1 STR        -0.0469
     17 C16        24.0720   10.4500   56.2670 C.3       1 STR        -0.0335
     18 C17        22.7140   11.1490   56.6270 C.3       1 STR         0.0379
     19 C18        23.6590   12.6770   58.4540 C.3       1 STR        -0.0569
     20 C19        23.4270   11.2460   63.0070 C.3       1 STR        -0.0890
     21 C20        22.3750   12.3880   55.7810 C.2       1 STR         0.1055
     22 O20        23.2120   12.8760   55.0520 O.2       1 STR        -0.3916
     23 C21        21.0090   12.9760   55.8570 C.3       1 STR         0.0097
     24 H1         20.7461   10.9339   63.0554 H         1 STR         0.0172
     25 H2         20.5942    9.2345   62.4936 H         1 STR         0.0172
     26 H3         20.2127    9.3002   64.9134 H         1 STR         0.0483
     27 H4         21.7468   10.1972   65.1753 H         1 STR         0.0483
     28 H5         23.6931    6.9544   63.8488 H         1 STR         0.1318
     29 H6         25.0105    7.4034   62.1267 H         1 STR         0.0450
     30 H7         25.4986    9.1263   62.2680 H         1 STR         0.0450
     31 H8         23.7893    7.8301   60.0914 H         1 STR         0.0293
     32 H9         25.4147    8.5754   59.9199 H         1 STR         0.0293
     33 H10        24.4557   10.8239   60.3837 H         1 STR         0.0299
     34 H11        21.8366    9.2187   60.5802 H         1 STR         0.0187
     35 H12        22.1789   12.2491   60.7828 H         1 STR         0.0259
     36 H13        20.6461   11.3249   60.9350 H         1 STR         0.0259
     37 H14        20.9090   12.3701   58.6656 H         1 STR         0.0272
     38 H15        20.8243   10.5776   58.5834 H         1 STR         0.0272
     39 H16        22.7898    9.2297   58.3980 H         1 STR         0.0310
     40 H17        24.9895    8.8682   57.5259 H         1 STR         0.0270
     41 H18        25.5287   10.5308   57.9404 H         1 STR         0.0270
     42 H19        23.8966    9.6139   55.5741 H         1 STR         0.0293
     43 H20        24.7597   11.1725   55.8033 H         1 STR         0.0293
     44 H21        21.9048   10.4272   56.4422 H         1 STR         0.0535
     45 H22        23.7073   12.8531   59.5387 H         1 STR         0.0237
     46 H23        23.2066   13.5499   57.9607 H         1 STR         0.0237
     47 H24        24.6749   12.5201   58.0624 H         1 STR         0.0237
     48 H25        23.5220   11.1442   64.0982 H         1 STR         0.0112
     49 H26        22.8980   12.1810   62.7707 H         1 STR         0.0112
     50 H27        24.4283   11.2661   62.5521 H         1 STR         0.0112
     51 H28        20.9480   13.8489   55.1905 H         1 STR         0.0459
     52 H29        20.8015   13.2889   56.8909 H         1 STR         0.0459
     53 H30        20.2685   12.2246   55.5457 H         1 STR         0.0459
@<TRIPOS>BOND
     1    1    2 1  
     2    1   11 1  
     3    2    3 1  
     4    3    4 2  
     5    3    5 1  
     6    5    6 2  
     7    6    7 1  
     8    6   11 1  
     9    7    8 1  
    10    8    9 1  
    11    9   10 1  
    12    9   15 1  
    13   10   11 1  
    14   10   12 1  
    15   11   20 1  
    16   12   13 1  
    17   13   14 1  
    18   14   15 1  
    19   14   18 1  
    20   14   19 1  
    21   15   16 1  
    22   16   17 1  
    23   17   18 1  
    24   18   21 1  
    25   21   22 2  
    26   21   23 1  
    27    1   24 1  
    28    1   25 1  
    29    2   26 1  
    30    2   27 1  
    31    5   28 1  
    32    7   29 1  
    33    7   30 1  
    34    8   31 1  
    35    8   32 1  
    36    9   33 1  
    37   10   34 1  
    38   12   35 1  
    39   12   36 1  
    40   13   37 1  
    41   13   38 1  
    42   15   39 1  
    43   16   40 1  
    44   16   41 1  
    45   17   42 1  
    46   17   43 1  
    47   18   44 1  
    48   19   45 1  
    49   19   46 1  
    50   19   47 1  
    51   20   48 1  
    52   20   49 1  
    53   20   50 1  
    54   23   51 1  
    55   23   52 1  
    56   23   53 1  
@<TRIPOS>SUBSTRUCTURE
     1 STR         1

