### 
### Created by X-TOOL on Mon Sep 10 21:12:47 2018
### 

@<TRIPOS>MOLECULE
1a42_ligand
   45    46     1     0     0
SMALL
GAST_HUCK


@<TRIPOS>ATOM
      1 H1         -4.1878    5.0652   12.2705 H         1 BZU         0.0552
      2 H2         -2.5023    5.6279   12.5332 H         1 BZU         0.0552
      3 C3         -5.4450    2.0670   16.0490 C.2       1 BZU         0.1594
      4 C9         -3.3940    5.2050   13.0190 C.3       1 BZU         0.0786
      5 C10        -3.0550    3.8670   13.7100 C.3       1 BZU         0.0179
      6 C11        -3.3490    7.4080   13.9350 C.3       1 BZU         0.0532
      7 C12        -2.0760    7.4260   14.7640 C.3       1 BZU         0.0647
      8 C14        -1.9150    9.7690   15.0590 C.3       1 BZU         0.0449
      9 C15        -0.8780   10.9030   15.1780 C.3       1 BZU        -0.0416
     10 O1A        -5.4250    0.9940   18.2870 O.2       1 BZU        -0.1500
     11 O2A        -7.3980    0.8170   16.9950 O.2       1 BZU        -0.1500
     12 N21        -5.4860   -0.5450   16.4610 N.am      1 BZU        -0.2605
     13 S1         -5.9660    0.7500   16.9970 S.o2      1 BZU         0.0744
     14 C4         -4.3210    2.1520   15.2920 C.2       1 BZU        -0.0394
     15 C5         -4.1650    3.3450   14.6420 C.2       1 BZU         0.0145
     16 C6         -5.2160    4.2000   14.9310 C.2       1 BZU         0.1611
     17 S2         -6.3790    3.5010   15.9790 S.3       1 BZU        -0.0013
     18 S7         -5.2950    5.8270   14.3680 S.o2      1 BZU         0.0728
     19 O3B        -6.1600    5.8730   13.2440 O.2       1 BZU        -0.1520
     20 O4B        -5.8580    6.6800   15.3730 O.2       1 BZU        -0.1520
     21 N8         -3.8480    6.0650   14.0900 N.am      1 BZU        -0.2265
     22 N16        -2.7760    2.8950   12.6490 N.4       1 BZU         0.2389
     23 O13        -1.3070    8.5960   14.5330 O.3       1 BZU        -0.3784
     24 C17        -1.5640    3.0110   11.8410 C.3       1 BZU        -0.0353
     25 C18        -1.4630    1.9270   10.7540 C.3       1 BZU        -0.0245
     26 H3         -2.1480    4.0091   14.3160 H         1 BZU         0.0982
     27 H4         -4.0746    8.1411   14.3171 H         1 BZU         0.0501
     28 H5         -3.1307    7.6244   12.8788 H         1 BZU         0.0501
     29 H6         -1.4701    6.5457   14.5033 H         1 BZU         0.0576
     30 H7         -2.3456    7.3831   15.8296 H         1 BZU         0.0576
     31 H8         -2.3272    9.5486   16.0547 H         1 BZU         0.0557
     32 H9         -2.7265   10.0886   14.3888 H         1 BZU         0.0557
     33 H10        -1.3631   11.8021   15.5858 H         1 BZU         0.0252
     34 H11        -0.4651   11.1282   14.1836 H         1 BZU         0.0252
     35 H12        -0.0657   10.5881   15.8496 H         1 BZU         0.0252
     36 H13        -5.7232   -1.3976   16.9266 H         1 BZU         0.1635
     37 H14        -4.9248   -0.5665   15.6336 H         1 BZU         0.1635
     38 H15        -3.6030    1.3374   15.2093 H         1 BZU         0.0415
     39 H16        -3.5545    2.9328   12.0099 H         1 BZU         0.2027
     40 H17        -2.7454    1.9882   13.0880 H         1 BZU         0.2027
     41 H18        -0.6906    2.9254   12.5041 H         1 BZU         0.0811
     42 H19        -1.5597    3.9975   11.3543 H         1 BZU         0.0811
     43 H20        -0.5339    2.0668   10.1820 H         1 BZU         0.0281
     44 H21        -2.3260    2.0056   10.0765 H         1 BZU         0.0281
     45 H22        -1.4568    0.9336   11.2263 H         1 BZU         0.0281
@<TRIPOS>BOND
     1    3   17 1  
     2    3   14 2  
     3    3   13 1  
     4   13   10 2  
     5   13   11 2  
     6   13   12 am 
     7   14   15 1  
     8   15   16 2  
     9   15    5 1  
    10    5   22 1  
    11    5    4 1  
    12    4   21 1  
    13   21    6 1  
    14   21   18 am 
    15   18   20 2  
    16   18   19 2  
    17   18   16 1  
    18   16   17 1  
    19    6    7 1  
    20    7   23 1  
    21   23    8 1  
    22    8    9 1  
    23   22   24 1  
    24   24   25 1  
    25    4    1 1  
    26    4    2 1  
    27    5   26 1  
    28    6   27 1  
    29    6   28 1  
    30    7   29 1  
    31    7   30 1  
    32    8   31 1  
    33    8   32 1  
    34    9   33 1  
    35    9   34 1  
    36    9   35 1  
    37   12   36 1  
    38   12   37 1  
    39   14   38 1  
    40   22   39 1  
    41   22   40 1  
    42   24   41 1  
    43   24   42 1  
    44   25   43 1  
    45   25   44 1  
    46   25   45 1  
@<TRIPOS>SUBSTRUCTURE
     1 BZU         1

