### 
### Created by X-TOOL on Mon Sep 10 21:12:46 2018
### 

@<TRIPOS>MOLECULE
1a46_ligand
   85    88     1     0     0
SMALL
GAST_HUCK


@<TRIPOS>ATOM
      1 C1         17.8330  -13.0420   21.6620 C.3       1 00K         0.1761
      2 C2         18.8870  -13.0710   20.5870 C.3       1 00K         0.0338
      3 C3         19.8510  -14.2200   21.1170 C.3       1 00K        -0.0027
      4 C4         19.3270  -16.4440   22.1560 C.3       1 00K        -0.0023
      5 C5         18.1340  -17.2300   22.7620 C.3       1 00K         0.0436
      6 C6         17.2230  -16.3290   23.5970 C.3       1 00K         0.0869
      7 C7         17.0320  -14.9230   23.0460 C.2       1 00K         0.2914
      8 N1         18.8520  -15.2420   21.4440 N.4       1 00K         0.3755
      9 N2         17.7750  -14.5090   22.0480 N.am      1 00K        -0.2113
     10 O1         15.9850  -14.2900   23.3800 O.2       1 00K        -0.3329
     11 C8         16.6380  -13.0610   20.7550 C.2       1 00K         0.2076
     12 O2         16.4620  -13.9620   19.8370 O.2       1 00K        -0.3943
     13 N3         15.8090  -16.7300   23.6610 N.4       1 00K         0.2244
     14 C9         17.4150  -16.4170   25.1230 C.3       1 00K         0.0348
     15 C10        18.7640  -15.9840   25.5820 C.ar      1 00K        -0.0383
     16 C11        19.0510  -14.6340   25.7600 C.ar      1 00K        -0.0603
     17 C12        20.3910  -14.2520   26.0760 C.ar      1 00K        -0.0686
     18 C13        21.4290  -15.1780   26.2150 C.ar      1 00K        -0.0687
     19 C14        21.0990  -16.5480   26.0980 C.ar      1 00K        -0.0686
     20 C15        19.7890  -16.9510   25.7560 C.ar      1 00K        -0.0603
     21 N          15.6470  -12.0890   20.7690 N.am      1 00K        -0.2770
     22 CA         14.4940  -11.8920   19.9090 C.3       1 00K         0.0850
     23 C          14.4960  -10.9450   18.7130 C.3       1 00K         0.1662
     24 O          13.3800  -10.6840   18.0770 O.3       1 00K        -0.3691
     25 CB         13.1950  -11.6150   20.6280 C.3       1 00K        -0.0251
     26 CG         12.8670  -12.5040   21.7570 C.3       1 00K        -0.0459
     27 CD         11.5610  -12.2200   22.4370 C.3       1 00K        -0.0126
     28 CE         11.1700  -13.3510   23.3530 C.3       1 00K        -0.0354
     29 NZ         10.0380  -13.1110   24.2350 N.4       1 00K         0.2185
     30 N          14.8040  -11.9210   16.4570 N.am      1 00K        -0.2817
     31 C          15.3450  -11.4350   17.5510 C.2       1 00K         0.2075
     32 O          16.4740  -11.0890   17.7310 O.2       1 00K        -0.3941
     33 C1         15.6510  -12.3330   15.3350 C.3       1 00K         0.0421
     34 C2         16.0390  -13.7960   15.2500 C.3       1 00K        -0.0299
     35 C3         14.9560  -14.6030   14.5390 C.3       1 00K        -0.0510
     36 C4         14.5990  -13.9990   13.1800 C.3       1 00K        -0.0529
     37 C5         14.1680  -12.5610   13.3540 C.3       1 00K        -0.0510
     38 C6         15.2770  -11.7400   13.9980 C.3       1 00K        -0.0299
     39 H1         17.9056  -12.2840   22.4558 H         1 00K         0.0857
     40 H2         19.4128  -12.1076   20.5140 H         1 00K         0.0367
     41 H3         18.4556  -13.3284   19.6084 H         1 00K         0.0367
     42 H4         20.4188  -13.9026   22.0040 H         1 00K         0.0824
     43 H5         20.5484  -14.5623   20.3383 H         1 00K         0.0824
     44 H6         19.8654  -17.0929   21.4496 H         1 00K         0.0822
     45 H7         20.0069  -16.1392   22.9652 H         1 00K         0.0822
     46 H8         18.5262  -18.0323   23.4042 H         1 00K         0.0365
     47 H9         17.5455  -17.6701   21.9435 H         1 00K         0.0365
     48 H10        18.5038  -15.5956   20.5666 H         1 00K         0.2305
     49 H11        15.2993  -16.0741   24.2321 H         1 00K         0.2000
     50 H12        15.7389  -17.6514   24.0637 H         1 00K         0.2000
     51 H13        15.4199  -16.7391   22.7312 H         1 00K         0.2000
     52 H14        17.2613  -17.4612   25.4329 H         1 00K         0.0472
     53 H15        16.6619  -15.7767   25.6054 H         1 00K         0.0472
     54 H16        18.2725  -13.8862   25.6608 H         1 00K         0.0557
     55 H17        20.6121  -13.1998   26.2138 H         1 00K         0.0599
     56 H18        22.4472  -14.8583   26.4051 H         1 00K         0.0559
     57 H19        21.8611  -17.2987   26.2730 H         1 00K         0.0599
     58 H20        19.5652  -18.0036   25.6258 H         1 00K         0.0557
     59 H21        15.7438  -11.4084   21.4953 H         1 00K         0.1857
     60 H22        14.3731  -12.8874   19.4568 H         1 00K         0.0607
     61 H23        14.9037   -9.9956   19.0904 H         1 00K         0.0861
     62 H24        13.5566  -10.0814   17.3641 H         1 00K         0.2134
     63 H25        12.3816  -11.6953   19.8919 H         1 00K         0.0290
     64 H26        13.2395  -10.5861   21.0145 H         1 00K         0.0290
     65 H27        13.6673  -12.4118   22.5060 H         1 00K         0.0268
     66 H28        12.8359  -13.5365   21.3788 H         1 00K         0.0268
     67 H29        10.7795  -12.0889   21.6740 H         1 00K         0.0317
     68 H30        11.6562  -11.2964   23.0268 H         1 00K         0.0317
     69 H31        12.0403  -13.5868   23.9831 H         1 00K         0.0813
     70 H32        10.9257  -14.2204   22.7250 H         1 00K         0.0813
     71 H33         9.8700  -13.9309   24.7968 H         1 00K         0.1994
     72 H34         9.2192  -12.9083   23.6832 H         1 00K         0.1994
     73 H35        10.2406  -12.3276   24.8361 H         1 00K         0.1994
     74 H36        13.8102  -12.0101   16.3899 H         1 00K         0.1855
     75 H37        16.6070  -11.8418   15.5691 H         1 00K         0.0556
     76 H38        16.1754  -14.1927   16.2669 H         1 00K         0.0287
     77 H39        16.9821  -13.8872   14.6913 H         1 00K         0.0287
     78 H40        14.0542  -14.6213   15.1686 H         1 00K         0.0266
     79 H41        15.3187  -15.6304   14.3879 H         1 00K         0.0266
     80 H42        13.7767  -14.5743   12.7297 H         1 00K         0.0265
     81 H43        15.4785  -14.0389   12.5206 H         1 00K         0.0265
     82 H44        13.2749  -12.5269   13.9952 H         1 00K         0.0266
     83 H45        13.9286  -12.1342   12.3689 H         1 00K         0.0266
     84 H46        16.1587  -11.7402   13.3403 H         1 00K         0.0287
     85 H47        14.9278  -10.7070   14.1429 H         1 00K         0.0287
@<TRIPOS>BOND
     1    2    1 1  
     2    1    9 1  
     3    1   11 1  
     4    3    2 1  
     5    8    3 1  
     6    4    5 1  
     7    4    8 1  
     8    5    6 1  
     9    6    7 1  
    10    6   13 1  
    11    6   14 1  
    12    7    9 am 
    13    7   10 2  
    14    8    9 1  
    15   11   12 2  
    16   11   21 am 
    17   14   15 1  
    18   15   16 ar 
    19   15   20 ar 
    20   16   17 ar 
    21   17   18 ar 
    22   18   19 ar 
    23   19   20 ar 
    24   21   22 1  
    25   22   23 1  
    26   22   25 1  
    27   23   24 1  
    28   23   31 1  
    29   25   26 1  
    30   26   27 1  
    31   27   28 1  
    32   28   29 1  
    33   31   30 am 
    34   30   33 1  
    35   31   32 2  
    36   33   34 1  
    37   33   38 1  
    38   34   35 1  
    39   35   36 1  
    40   36   37 1  
    41   37   38 1  
    42    1   39 1  
    43    2   40 1  
    44    2   41 1  
    45    3   42 1  
    46    3   43 1  
    47    4   44 1  
    48    4   45 1  
    49    5   46 1  
    50    5   47 1  
    51    8   48 1  
    52   13   49 1  
    53   13   50 1  
    54   13   51 1  
    55   14   52 1  
    56   14   53 1  
    57   16   54 1  
    58   17   55 1  
    59   18   56 1  
    60   19   57 1  
    61   20   58 1  
    62   21   59 1  
    63   22   60 1  
    64   23   61 1  
    65   24   62 1  
    66   25   63 1  
    67   25   64 1  
    68   26   65 1  
    69   26   66 1  
    70   27   67 1  
    71   27   68 1  
    72   28   69 1  
    73   28   70 1  
    74   29   71 1  
    75   29   72 1  
    76   29   73 1  
    77   30   74 1  
    78   33   75 1  
    79   34   76 1  
    80   34   77 1  
    81   35   78 1  
    82   35   79 1  
    83   36   80 1  
    84   36   81 1  
    85   37   82 1  
    86   37   83 1  
    87   38   84 1  
    88   38   85 1  
@<TRIPOS>SUBSTRUCTURE
     1 00K         1

