### 
### Created by X-TOOL on Mon Sep 10 21:12:47 2018
### 

@<TRIPOS>MOLECULE
1a4g_ligand
   43    43     1     0     0
SMALL
GAST_HUCK


@<TRIPOS>ATOM
      1 C1         -2.2500   58.2420   -5.5910 C.2       1 ZMR         0.0810
      2 O1A        -3.1720   59.1980   -5.4520 O.co2     1 ZMR        -0.5623
      3 O1B        -1.3720   58.0410   -4.8130 O.co2     1 ZMR        -0.5623
      4 C2         -2.3300   57.4010   -6.7980 C.2       1 ZMR         0.1099
      5 C3         -1.4680   56.3850   -6.9670 C.2       1 ZMR        -0.0168
      6 C4         -1.5020   55.5410   -8.2050 C.3       1 ZMR         0.1182
      7 C5         -2.2900   56.1690   -9.2970 C.3       1 ZMR         0.1162
      8 N5         -2.6540   55.1780  -10.2990 N.am      1 ZMR        -0.2758
      9 C10        -2.1140   55.1230  -11.5200 C.2       1 ZMR         0.1735
     10 O10        -1.3800   55.9770  -11.9750 O.2       1 ZMR        -0.3974
     11 C11        -2.4680   53.8830  -12.3160 C.3       1 ZMR         0.0257
     12 C6         -3.5940   56.7640   -8.6860 C.3       1 ZMR         0.1332
     13 O6         -3.2710   57.7090   -7.6700 O.3       1 ZMR        -0.3188
     14 C7         -4.6460   57.3120   -9.6380 C.3       1 ZMR         0.1155
     15 O7         -3.8180   57.8920  -10.0820 O.3       1 ZMR        -0.3861
     16 C8         -5.8270   57.8570   -9.0220 C.3       1 ZMR         0.1068
     17 O8         -6.4010   56.6980   -8.4110 O.3       1 ZMR        -0.3869
     18 C9         -6.8360   58.4830   -9.9830 C.3       1 ZMR         0.0727
     19 O9         -7.4390   57.4730  -10.7910 O.3       1 ZMR        -0.3924
     20 NE         -0.1890   55.1810   -8.6950 N.pl3     1 ZMR        -0.2592
     21 CZ          0.0430   54.0300   -9.3200 C.cat     1 ZMR         0.2902
     22 NH1        -0.8960   53.0810   -9.4020 N.pl3     1 ZMR        -0.2847
     23 NH2         1.2160   53.8670   -9.9260 N.pl3     1 ZMR        -0.2847
     24 H1         -0.7330   56.1712   -6.1925 H         1 ZMR         0.0492
     25 H2         -2.0115   54.6053   -7.9315 H         1 ZMR         0.0872
     26 H3         -1.6974   56.9674   -9.7674 H         1 ZMR         0.0645
     27 H4         -3.3482   54.4992  -10.0598 H         1 ZMR         0.1858
     28 H5         -1.9801   53.9279  -13.3009 H         1 ZMR         0.0467
     29 H6         -3.5587   53.8317  -12.4492 H         1 ZMR         0.0467
     30 H7         -2.1221   52.9894  -11.7759 H         1 ZMR         0.0467
     31 H8         -4.0845   55.9192   -8.1803 H         1 ZMR         0.0697
     32 H9         -5.0137   56.5585  -10.3500 H         1 ZMR         0.0650
     33 H10        -3.4295   58.4476   -9.4165 H         1 ZMR         0.2100
     34 H11        -5.5475   58.6083   -8.2688 H         1 ZMR         0.0643
     35 H12        -6.6302   56.0674   -9.0836 H         1 ZMR         0.2100
     36 H13        -6.3200   59.2067  -10.6310 H         1 ZMR         0.0584
     37 H14        -7.6162   58.9997   -9.4049 H         1 ZMR         0.0584
     38 H15        -7.8866   56.8480  -10.2330 H         1 ZMR         0.2095
     39 H16         0.5920   55.8379   -8.5552 H         1 ZMR         0.2667
     40 H17        -0.6938   52.1973   -9.8911 H         1 ZMR         0.2615
     41 H18        -1.8213   53.2339   -8.9761 H         1 ZMR         0.2615
     42 H19         1.9361   54.6005   -9.8601 H         1 ZMR         0.2615
     43 H20         1.4041   53.0073  -10.4611 H         1 ZMR         0.2615
@<TRIPOS>BOND
     1    4    1 1  
     2    1    3 ar 
     3    1    2 ar 
     4    4   13 1  
     5    4    5 2  
     6    5    6 1  
     7    6   20 1  
     8    6    7 1  
     9    7   12 1  
    10    7    8 1  
    11    8    9 am 
    12    9   11 1  
    13    9   10 2  
    14   12   14 1  
    15   12   13 1  
    16   14   16 1  
    17   14   15 1  
    18   16   18 1  
    19   16   17 1  
    20   18   19 1  
    21   20   21 ar 
    22   21   23 ar 
    23   21   22 ar 
    24    5   24 1  
    25    6   25 1  
    26    7   26 1  
    27    8   27 1  
    28   11   28 1  
    29   11   29 1  
    30   11   30 1  
    31   12   31 1  
    32   14   32 1  
    33   15   33 1  
    34   16   34 1  
    35   17   35 1  
    36   18   36 1  
    37   18   37 1  
    38   19   38 1  
    39   20   39 1  
    40   22   40 1  
    41   22   41 1  
    42   23   42 1  
    43   23   43 1  
@<TRIPOS>SUBSTRUCTURE
     1 ZMR         1

