### 
### Created by X-TOOL on Mon Sep 10 21:12:46 2018
### 

@<TRIPOS>MOLECULE
1a4h_ligand
   80    81     1     0     0
SMALL
GAST_HUCK


@<TRIPOS>ATOM
      1 O1         11.8980   -4.1060   -0.0770 O.2       1 GDM        -0.3753
      2 O2         18.3160   -2.7340   -2.3380 O.3       1 GDM        -0.3598
      3 O3         18.3060   -4.3960   -4.5700 O.3       1 GDM        -0.2436
      4 O4         19.8210   -3.2570   -5.7130 O.2       1 GDM        -0.3776
      5 O5         14.6760   -1.0450   -9.5010 O.3       1 GDM        -0.3877
      6 O6         14.5630    1.4480   -7.6390 O.3       1 GDM        -0.3771
      7 O7         11.4380   -4.4140   -8.2560 O.3       1 GDM        -0.3151
      8 O8         13.2010   -6.3020   -6.5970 O.2       1 GDM        -0.3865
      9 O9         10.4770   -2.6280   -3.8990 O.2       1 GDM        -0.3575
     10 N1         11.4190   -4.6210   -2.3080 N.am      1 GDM        -0.2158
     11 N2         20.4610   -5.0930   -4.8510 N.am      1 GDM        -0.2762
     12 C1         11.9460   -3.7710   -1.2720 C.2       1 GDM         0.2316
     13 C2         12.5870   -2.3550   -1.4050 C.2       1 GDM         0.0245
     14 C3         13.8180   -2.4080   -2.0340 C.2       1 GDM        -0.0656
     15 C4         14.9020   -1.4030   -2.2370 C.2       1 GDM        -0.0729
     16 C5         16.1950   -1.7270   -2.5680 C.2       1 GDM        -0.0424
     17 C6         17.0050   -3.0090   -2.8250 C.3       1 GDM         0.1288
     18 C7         17.4520   -3.2520   -4.2950 C.3       1 GDM         0.1504
     19 C8         16.4810   -3.2080   -5.4570 C.2       1 GDM        -0.0457
     20 C9         16.6800   -2.3600   -6.4830 C.2       1 GDM        -0.1006
     21 C10        16.0410   -1.9750   -7.8000 C.3       1 GDM        -0.0094
     22 C11        15.4340   -0.6540   -8.3270 C.3       1 GDM         0.0868
     23 C12        14.4320    0.0620   -7.3810 C.3       1 GDM         0.0859
     24 C13        12.9420   -0.2680   -7.5260 C.3       1 GDM        -0.0200
     25 C14        12.3710   -0.8080   -6.1990 C.3       1 GDM        -0.0344
     26 C15        11.2230   -1.8470   -6.5040 C.3       1 GDM        -0.0163
     27 C16        11.3620   -3.2860   -6.0250 C.2       1 GDM         0.0496
     28 C17        11.7230   -4.3680   -6.8230 C.2       1 GDM         0.1484
     29 C18        12.4560   -5.5300   -6.0180 C.2       1 GDM         0.1522
     30 C19        12.2040   -5.6850   -4.5400 C.2       1 GDM         0.0078
     31 C20        11.5380   -4.7180   -3.8510 C.2       1 GDM         0.1367
     32 C21        11.0800   -3.4780   -4.5510 C.2       1 GDM         0.1905
     33 C22        12.0120   -1.0670   -0.6620 C.3       1 GDM        -0.0273
     34 C23        18.5220   -2.7580   -0.9420 C.3       1 GDM         0.0406
     35 C24        19.5210   -4.1680   -5.0030 C.2       1 GDM         0.3194
     36 C25        15.7880   -4.5240   -5.3980 C.3       1 GDM        -0.0373
     37 C26        17.2630   -2.2560   -8.6650 C.3       1 GDM        -0.0567
     38 C27        15.1580    2.2530   -6.6380 C.3       1 GDM         0.0369
     39 C28        12.3020    0.2910   -5.0710 C.3       1 GDM        -0.0609
     40 C29        10.6420   -5.3620   -9.1330 C.3       1 GDM         0.0602
     41 H1         14.2690   -0.2768   -9.8841 H         1 GDM         0.2101
     42 H2         10.8223   -5.3323   -1.9365 H         1 GDM         0.2392
     43 H3         21.3893   -4.9214   -5.1807 H         1 GDM         0.1831
     44 H4         20.2407   -5.9614   -4.4068 H         1 GDM         0.1831
     45 H5         14.0412   -3.3809   -2.4694 H         1 GDM         0.0539
     46 H6         14.6531   -0.3498   -2.1155 H         1 GDM         0.0436
     47 H7         16.8128   -0.8370   -2.6781 H         1 GDM         0.0741
     48 H8         16.5107   -3.8837   -2.3772 H         1 GDM         0.0852
     49 H9         18.0989   -2.3790   -4.4665 H         1 GDM         0.0853
     50 H10        17.5781   -1.7680   -6.3132 H         1 GDM         0.0247
     51 H11        15.2481   -2.7177   -7.9723 H         1 GDM         0.0398
     52 H12        16.2447    0.0430   -8.5856 H         1 GDM         0.0637
     53 H13        14.7272   -0.1617   -6.3452 H         1 GDM         0.0623
     54 H14        12.8155   -1.0294   -8.3098 H         1 GDM         0.0295
     55 H15        12.3961    0.6440   -7.8092 H         1 GDM         0.0295
     56 H16        13.1669   -1.4608   -5.8113 H         1 GDM         0.0317
     57 H17        11.1085   -1.8843   -7.5974 H         1 GDM         0.0392
     58 H18        10.3029   -1.4478   -6.0523 H         1 GDM         0.0392
     59 H19        12.5565   -6.5750   -4.0207 H         1 GDM         0.0327
     60 H20        11.0177   -1.2946   -0.2501 H         1 GDM         0.0384
     61 H21        11.9307   -0.2362   -1.3783 H         1 GDM         0.0384
     62 H22        12.6907   -0.7815    0.1552 H         1 GDM         0.0384
     63 H23        19.5752   -2.5283   -0.7228 H         1 GDM         0.0527
     64 H24        18.2757   -3.7567   -0.5521 H         1 GDM         0.0527
     65 H25        17.8758   -2.0077   -0.4630 H         1 GDM         0.0527
     66 H26        15.0528   -4.5881   -6.2137 H         1 GDM         0.0376
     67 H27        15.2728   -4.6241   -4.4313 H         1 GDM         0.0376
     68 H28        16.5262   -5.3323   -5.5055 H         1 GDM         0.0376
     69 H29        17.7394   -3.1906   -8.3341 H         1 GDM         0.0247
     70 H30        17.9785   -1.4260   -8.5695 H         1 GDM         0.0247
     71 H31        16.9536   -2.3544   -9.7160 H         1 GDM         0.0247
     72 H32        15.1906    3.2982   -6.9794 H         1 GDM         0.0524
     73 H33        16.1810    1.8990   -6.4428 H         1 GDM         0.0524
     74 H34        14.5647    2.1874   -5.7140 H         1 GDM         0.0524
     75 H35        13.2318    0.8788   -5.0744 H         1 GDM         0.0234
     76 H36        12.1794   -0.1955   -4.0921 H         1 GDM         0.0234
     77 H37        11.4468    0.9566   -5.2594 H         1 GDM         0.0234
     78 H38        10.6876   -5.0206  -10.1777 H         1 GDM         0.0581
     79 H39         9.5943   -5.3788   -8.7982 H         1 GDM         0.0581
     80 H40        11.0669   -6.3739   -9.0591 H         1 GDM         0.0581
@<TRIPOS>BOND
     1   12    1 2  
     2   17    2 1  
     3    2   34 1  
     4   18    3 1  
     5    3   35 1  
     6   35    4 2  
     7   22    5 1  
     8   23    6 1  
     9    6   38 1  
    10   28    7 1  
    11    7   40 1  
    12   29    8 2  
    13   32    9 2  
    14   12   10 am 
    15   10   31 1  
    16   35   11 am 
    17   13   12 1  
    18   14   13 2  
    19   13   33 1  
    20   15   14 1  
    21   16   15 2  
    22   17   16 1  
    23   18   17 1  
    24   19   18 1  
    25   20   19 2  
    26   19   36 1  
    27   21   20 1  
    28   22   21 1  
    29   21   37 1  
    30   23   22 1  
    31   24   23 1  
    32   25   24 1  
    33   26   25 1  
    34   25   39 1  
    35   27   26 1  
    36   28   27 2  
    37   27   32 1  
    38   28   29 1  
    39   29   30 1  
    40   30   31 2  
    41   31   32 1  
    42    5   41 1  
    43   10   42 1  
    44   11   43 1  
    45   11   44 1  
    46   14   45 1  
    47   15   46 1  
    48   16   47 1  
    49   17   48 1  
    50   18   49 1  
    51   20   50 1  
    52   21   51 1  
    53   22   52 1  
    54   23   53 1  
    55   24   54 1  
    56   24   55 1  
    57   25   56 1  
    58   26   57 1  
    59   26   58 1  
    60   30   59 1  
    61   33   60 1  
    62   33   61 1  
    63   33   62 1  
    64   34   63 1  
    65   34   64 1  
    66   34   65 1  
    67   36   66 1  
    68   36   67 1  
    69   36   68 1  
    70   37   69 1  
    71   37   70 1  
    72   37   71 1  
    73   38   72 1  
    74   38   73 1  
    75   38   74 1  
    76   39   75 1  
    77   39   76 1  
    78   39   77 1  
    79   40   78 1  
    80   40   79 1  
    81   40   80 1  
@<TRIPOS>SUBSTRUCTURE
     1 GDM         1

