### 
### Created by X-TOOL on Mon Sep 10 21:12:46 2018
### 

@<TRIPOS>MOLECULE
1a4m_ligand
   31    33     1     0     0
SMALL
GAST_HUCK


@<TRIPOS>ATOM
      1 N1         42.5180   21.8840   54.0210 N.am      1 PRH        -0.2042
      2 C2         43.5210   21.4580   53.2580 C.2       1 PRH         0.1273
      3 N3         43.3100   20.9690   52.0350 N.2       1 PRH        -0.2683
      4 C4         42.0220   20.8840   51.5120 C.2       1 PRH         0.1354
      5 C5         40.9670   21.3010   52.2440 C.2       1 PRH         0.1044
      6 C6         41.2000   21.8320   53.5610 C.2       1 PRH         0.2200
      7 O6         40.5460   23.2950   53.6830 O.2       1 PRH        -0.4066
      8 N7         39.8430   21.1100   51.5070 N.2       1 PRH        -0.3155
      9 C8         40.1960   20.5780   50.3350 C.2       1 PRH         0.1004
     10 N9         41.5390   20.4300   50.3160 N.pl3     1 PRH        -0.2045
     11 C1'        42.3350   19.8660   49.2340 C.3       1 PRH         0.2003
     12 C2'        41.6760   18.5710   48.6820 C.3       1 PRH         0.1389
     13 O2'        42.6470   17.5160   48.5850 O.3       1 PRH        -0.3835
     14 C3'        41.0570   18.8410   47.2770 C.3       1 PRH         0.1146
     15 O3'        41.2670   17.7040   46.4350 O.3       1 PRH        -0.3864
     16 C4'        42.1750   19.9560   47.0240 C.3       1 PRH         0.1136
     17 O4'        42.3620   20.7420   48.1390 O.3       1 PRH        -0.3365
     18 C5'        41.8650   20.8400   45.7960 C.3       1 PRH         0.0730
     19 O5'        40.6550   21.5940   45.9760 O.3       1 PRH        -0.3924
     20 H1         42.7096   22.2453   54.9336 H         1 PRH         0.2557
     21 H2         44.5391   21.5097   53.6411 H         1 PRH         0.1493
     22 H3         39.5154   20.3083   49.5288 H         1 PRH         0.1213
     23 H4         43.3537   19.6607   49.5948 H         1 PRH         0.1001
     24 H5         40.8773   18.2583   49.3707 H         1 PRH         0.0677
     25 H6         42.2292   16.7327   48.2466 H         1 PRH         0.2101
     26 H7         40.0128   19.1864   47.2574 H         1 PRH         0.0648
     27 H8         40.8890   17.8708   45.5795 H         1 PRH         0.2100
     28 H9         43.1200   19.4303   46.8225 H         1 PRH         0.0647
     29 H10        41.7552   20.1955   44.9114 H         1 PRH         0.0584
     30 H11        42.7003   21.5384   45.6395 H         1 PRH         0.0584
     31 H12        40.7443   22.1573   46.7358 H         1 PRH         0.2095
@<TRIPOS>BOND
     1    1    2 am 
     2    1    6 am 
     3    2    3 2  
     4    3    4 1  
     5    4    5 2  
     6    4   10 1  
     7    5    6 1  
     8    5    8 1  
     9    6    7 2  
    10    8    9 2  
    11    9   10 1  
    12   10   11 1  
    13   11   12 1  
    14   11   17 1  
    15   12   13 1  
    16   12   14 1  
    17   14   15 1  
    18   14   16 1  
    19   16   17 1  
    20   16   18 1  
    21   18   19 1  
    22    1   20 1  
    23    2   21 1  
    24    9   22 1  
    25   11   23 1  
    26   12   24 1  
    27   13   25 1  
    28   14   26 1  
    29   15   27 1  
    30   16   28 1  
    31   18   29 1  
    32   18   30 1  
    33   19   31 1  
@<TRIPOS>SUBSTRUCTURE
     1 PRH         1

