### 
### Created by X-TOOL on Mon Sep 10 21:12:47 2018
### 

@<TRIPOS>MOLECULE
1a4q_ligand
   55    56     1     0     0
SMALL
GAST_HUCK


@<TRIPOS>ATOM
      1 C1         -2.4160   58.3090   -5.4640 C.2       1 DPC         0.0812
      2 O1A        -3.3710   59.0640   -5.3230 O.co2     1 DPC        -0.5623
      3 O1B        -1.5990   58.1890   -4.5610 O.co2     1 DPC        -0.5623
      4 C2         -2.3440   57.4690   -6.6730 C.2       1 DPC         0.1146
      5 C3         -1.4120   56.5180   -6.7960 C.2       1 DPC        -0.0082
      6 C4         -1.3790   55.6270   -8.0080 C.3       1 DPC         0.0232
      7 C5         -2.2120   56.1910   -9.1560 C.3       1 DPC         0.1375
      8 N5         -2.4990   55.1260  -10.1100 N.am      1 DPC        -0.2720
      9 C10        -2.1370   55.1410  -11.4020 C.2       1 DPC         0.1737
     10 O10        -1.5630   56.1000  -11.8890 O.2       1 DPC        -0.3974
     11 C11        -2.4430   53.8710  -12.2170 C.3       1 DPC         0.0257
     12 C6         -3.5280   56.7290   -8.5990 C.3       1 DPC         0.1947
     13 O6         -3.2930   57.6710   -7.5870 O.3       1 DPC        -0.3008
     14 C7         -4.2550   57.5050   -9.6740 C.2       1 DPC         0.2148
     15 O7         -3.7430   58.2630   -9.9970 O.2       1 DPC        -0.3935
     16 N8         -5.3800   57.0300  -10.1910 N.am      1 DPC        -0.2688
     17 C81        -5.9710   57.8100  -11.3010 C.3       1 DPC         0.0435
     18 C82        -5.3950   57.4170  -12.6650 C.3       1 DPC         0.0013
     19 CG         -6.0130   58.3010  -13.7300 C.ar      1 DPC        -0.0411
     20 CD1        -5.5860   59.6390  -13.8840 C.ar      1 DPC        -0.0603
     21 CD2        -7.0380   57.8160  -14.5550 C.ar      1 DPC        -0.0603
     22 CE1        -6.2020   60.4850  -14.8230 C.ar      1 DPC        -0.0686
     23 CE2        -7.6510   58.6560  -15.4900 C.ar      1 DPC        -0.0686
     24 CZ         -7.2490   59.9920  -15.6230 C.ar      1 DPC        -0.0687
     25 C9         -6.0810   55.8520   -9.6850 C.3       1 DPC         0.0339
     26 C91        -6.9620   56.1710   -8.4650 C.3       1 DPC        -0.0354
     27 C92        -7.8370   57.4310   -8.6020 C.3       1 DPC        -0.0634
     28 NE         -0.0140   55.4590   -8.4300 N.4       1 DPC         0.2323
     29 H1         -0.6690   56.3870   -6.0107 H         1 DPC         0.0510
     30 H2         -1.7907   54.6452   -7.7312 H         1 DPC         0.0997
     31 H3         -1.6591   57.0001   -9.6556 H         1 DPC         0.0689
     32 H4         -3.0013   54.3277   -9.7777 H         1 DPC         0.1861
     33 H5         -2.1002   54.0088  -13.2531 H         1 DPC         0.0467
     34 H6         -3.5270   53.6839  -12.2113 H         1 DPC         0.0467
     35 H7         -1.9204   53.0130  -11.7690 H         1 DPC         0.0467
     36 H8         -4.1433   55.8973   -8.2253 H         1 DPC         0.0917
     37 H9         -5.7708   58.8777  -11.1278 H         1 DPC         0.0545
     38 H10        -7.0574   57.6380  -11.3139 H         1 DPC         0.0545
     39 H11        -5.6312   56.3637  -12.8763 H         1 DPC         0.0446
     40 H12        -4.3036   57.5540  -12.6587 H         1 DPC         0.0446
     41 H13        -4.7752   60.0172  -13.2719 H         1 DPC         0.0557
     42 H14        -7.3571   56.7837  -14.4674 H         1 DPC         0.0557
     43 H15        -5.8719   61.5119  -14.9300 H         1 DPC         0.0599
     44 H16        -8.4453   58.2698  -16.1184 H         1 DPC         0.0599
     45 H17        -7.7416   60.6413  -16.3377 H         1 DPC         0.0559
     46 H18        -5.3367   55.0959   -9.3948 H         1 DPC         0.0522
     47 H19        -6.7191   55.4500  -10.4857 H         1 DPC         0.0522
     48 H20        -6.3028   56.3070   -7.5950 H         1 DPC         0.0282
     49 H21        -7.6267   55.3120   -8.2908 H         1 DPC         0.0282
     50 H22        -8.4251   57.5707   -7.6829 H         1 DPC         0.0230
     51 H23        -8.5174   57.3136   -9.4583 H         1 DPC         0.0230
     52 H24        -7.1936   58.3086   -8.7625 H         1 DPC         0.0230
     53 H25         0.5300   55.0865   -7.6675 H         1 DPC         0.2008
     54 H26         0.3640   56.3511   -8.7080 H         1 DPC         0.2008
     55 H27         0.0205   54.8216   -9.2101 H         1 DPC         0.2008
@<TRIPOS>BOND
     1    4    1 1  
     2    1    3 ar 
     3    1    2 ar 
     4    4   13 1  
     5    4    5 2  
     6    5    6 1  
     7    6   28 1  
     8    6    7 1  
     9    7   12 1  
    10    7    8 1  
    11    8    9 am 
    12    9   11 1  
    13    9   10 2  
    14   12   14 1  
    15   12   13 1  
    16   14   16 am 
    17   14   15 2  
    18   16   25 1  
    19   16   17 1  
    20   17   18 1  
    21   18   19 1  
    22   19   21 ar 
    23   19   20 ar 
    24   20   22 ar 
    25   22   24 ar 
    26   24   23 ar 
    27   23   21 ar 
    28   25   26 1  
    29   26   27 1  
    30    5   29 1  
    31    6   30 1  
    32    7   31 1  
    33    8   32 1  
    34   11   33 1  
    35   11   34 1  
    36   11   35 1  
    37   12   36 1  
    38   17   37 1  
    39   17   38 1  
    40   18   39 1  
    41   18   40 1  
    42   20   41 1  
    43   21   42 1  
    44   22   43 1  
    45   23   44 1  
    46   24   45 1  
    47   25   46 1  
    48   25   47 1  
    49   26   48 1  
    50   26   49 1  
    51   27   50 1  
    52   27   51 1  
    53   27   52 1  
    54   28   53 1  
    55   28   54 1  
    56   28   55 1  
@<TRIPOS>SUBSTRUCTURE
     1 DPC         1

