### 
### Created by X-TOOL on Mon Sep 10 21:12:46 2018
### 

@<TRIPOS>MOLECULE
1a4w_ligand
   82    85     1     0     0
SMALL
GAST_HUCK


@<TRIPOS>ATOM
      1 C1         17.7350  -17.1780   22.6120 C.ar      1 QWE         0.1103
      2 C2         18.5430  -17.3500   21.4620 C.ar      1 QWE        -0.0380
      3 C3         19.8770  -17.0460   21.5580 C.ar      1 QWE        -0.0621
      4 C4         20.4010  -16.5660   22.7660 C.ar      1 QWE        -0.0544
      5 C4A        19.6130  -16.3580   23.8930 C.ar      1 QWE         0.0095
      6 C5         20.0840  -15.7910   25.0460 C.ar      1 QWE         0.0537
      7 C6         19.2410  -15.5680   26.1140 C.ar      1 QWE        -0.0457
      8 C7         17.8930  -15.9710   26.0280 C.ar      1 QWE        -0.0783
      9 C8         17.3700  -16.5100   24.8790 C.ar      1 QWE        -0.0696
     10 C8A        18.2050  -16.6890   23.8090 C.ar      1 QWE        -0.0026
     11 N          21.3830  -15.2850   25.1040 N.pl3     1 QWE        -0.3105
     12 CM1        21.8980  -14.2170   24.2140 C.3       1 QWE         0.0171
     13 CM2        22.6350  -16.2130   25.4960 C.3       1 QWE         0.0171
     14 S          15.9090  -17.5810   22.4170 S.o2      1 QWE         0.0694
     15 O1S        15.9880  -18.0130   21.0100 O.2       1 QWE        -0.1506
     16 O2S        14.9980  -18.1910   23.4020 O.2       1 QWE        -0.1506
     17 N          14.8930  -15.9700   22.4850 N.am      1 QWE        -0.2258
     18 CA         15.1930  -15.1140   21.2960 C.3       1 QWE         0.1265
     19 C          16.3070  -14.1670   21.7520 C.2       1 QWE         0.2005
     20 O          16.2120  -13.7810   22.9140 O.2       1 QWE        -0.3948
     21 CB         13.9420  -14.3540   20.8790 C.3       1 QWE        -0.0128
     22 CG         13.2320  -13.6860   22.0580 C.3       1 QWE        -0.0160
     23 CD         11.8920  -13.1330   21.5950 C.3       1 QWE         0.0627
     24 NE         11.2180  -12.6470   22.7800 N.pl3     1 QWE        -0.2723
     25 CZ         11.4570  -11.5540   23.4830 C.cat     1 QWE         0.2882
     26 NH1        12.3590  -10.6740   23.0450 N.pl3     1 QWE        -0.2849
     27 NH2        10.7230  -11.3360   24.5660 N.pl3     1 QWE        -0.2849
     28 N1         17.2800  -13.6920   20.8300 N.am      1 QWE        -0.2685
     29 C2         17.0430  -14.0330   19.3270 C.3       1 QWE         0.0470
     30 C3         18.4210  -14.4720   18.8090 C.3       1 QWE        -0.0295
     31 C4         19.6100  -13.4170   19.1940 C.3       1 QWE        -0.0491
     32 C5         19.6960  -13.0830   20.7650 C.3       1 QWE        -0.0324
     33 C6         18.3510  -12.6800   21.3100 C.3       1 QWE         0.0342
     34 C1'        16.5930  -13.0140   18.5500 C.3       1 QWE        -0.0141
     35 C2'        15.9410  -13.4250   17.1790 C.3       1 QWE         0.0302
     36 S1         15.7830  -14.9040   14.4580 S.3       1 QWE         0.0102
     37 O2         17.4880  -11.9220   16.2870 O.2       1 QWE        -0.3667
     38 C5         17.0590  -15.5830   13.5080 C.2       1 QWE         0.0195
     39 C2         16.8640  -13.5560   14.7390 C.2       1 QWE         0.1693
     40 C2'        16.8250  -12.9030   16.1070 C.2       1 QWE         0.1729
     41 C4         18.1460  -14.7340   13.4510 C.2       1 QWE        -0.0034
     42 N3         18.0490  -13.5540   14.1060 N.2       1 QWE        -0.2920
     43 H1         18.1193  -17.7117   20.5321 H         1 QWE         0.0632
     44 H2         20.5259  -17.1770   20.6996 H         1 QWE         0.0586
     45 H3         21.4614  -16.3485   22.8242 H         1 QWE         0.0631
     46 H4         19.6116  -15.0870   27.0119 H         1 QWE         0.0463
     47 H5         17.2513  -15.8519   26.8935 H         1 QWE         0.0573
     48 H6         16.3235  -16.7866   24.8204 H         1 QWE         0.0468
     49 H7         22.9472  -14.0036   24.4664 H         1 QWE         0.0483
     50 H8         21.2961  -13.3061   24.3480 H         1 QWE         0.0483
     51 H9         21.8329  -14.5489   23.1673 H         1 QWE         0.0483
     52 H10        22.2975  -17.0231   26.1592 H         1 QWE         0.0483
     53 H11        23.3928  -15.6068   26.0140 H         1 QWE         0.0483
     54 H12        23.0717  -16.6444   24.5832 H         1 QWE         0.0483
     55 H13        14.2502  -15.7309   23.2128 H         1 QWE         0.1705
     56 H14        15.5406  -15.7306   20.4540 H         1 QWE         0.0753
     57 H15        13.2448  -15.0593   20.4031 H         1 QWE         0.0309
     58 H16        14.2282  -13.5767   20.1553 H         1 QWE         0.0309
     59 H17        13.8542  -12.8648   22.4434 H         1 QWE         0.0301
     60 H18        13.0676  -14.4266   22.8546 H         1 QWE         0.0301
     61 H19        11.2977  -13.9262   21.1179 H         1 QWE         0.0689
     62 H20        12.0462  -12.3105   20.8810 H         1 QWE         0.0689
     63 H21        10.4447  -13.2347   23.1229 H         1 QWE         0.2642
     64 H22        12.5507   -9.8197   23.5875 H         1 QWE         0.2615
     65 H23        12.8637  -10.8489   22.1643 H         1 QWE         0.2615
     66 H24        10.0364  -12.0397   24.8730 H         1 QWE         0.2615
     67 H25        10.8396  -10.4630   25.1000 H         1 QWE         0.2615
     68 H26        16.3233  -14.8620   19.2574 H         1 QWE         0.0560
     69 H27        18.3722  -14.5617   17.7138 H         1 QWE         0.0287
     70 H28        18.6651  -15.4512   19.2467 H         1 QWE         0.0287
     71 H29        19.4311  -12.4784   18.6490 H         1 QWE         0.0267
     72 H30        20.5716  -13.8472   18.8776 H         1 QWE         0.0267
     73 H31        20.4071  -12.2579   20.9181 H         1 QWE         0.0285
     74 H32        20.0484  -13.9754   21.3029 H         1 QWE         0.0285
     75 H33        18.3862  -12.6760   22.4094 H         1 QWE         0.0522
     76 H34        18.0943  -11.6736   20.9477 H         1 QWE         0.0522
     77 H35        17.4466  -12.3553   18.3321 H         1 QWE         0.0311
     78 H36        15.8393  -12.4586   19.1274 H         1 QWE         0.0311
     79 H37        14.9375  -12.9835   17.0900 H         1 QWE         0.0488
     80 H38        15.8673  -14.5203   17.1085 H         1 QWE         0.0488
     81 H39        17.0111  -16.5545   13.0182 H         1 QWE         0.0812
     82 H40        19.0462  -15.0034   12.9005 H         1 QWE         0.0605
@<TRIPOS>BOND
     1   14    1 1  
     2    1   10 ar 
     3    1    2 ar 
     4    2    3 ar 
     5    3    4 ar 
     6    5    4 ar 
     7   10    5 ar 
     8    5    6 ar 
     9    6   11 1  
    10    6    7 ar 
    11    8    7 ar 
    12    9    8 ar 
    13   10    9 ar 
    14   11   13 1  
    15   11   12 1  
    16   14   16 2  
    17   14   15 2  
    18   19   18 1  
    19   18   21 1  
    20   18   17 1  
    21   21   22 1  
    22   22   23 1  
    23   23   24 1  
    24   24   25 ar 
    25   25   26 ar 
    26   25   27 ar 
    27   19   20 2  
    28   28   33 1  
    29   29   28 1  
    30   34   29 1  
    31   29   30 1  
    32   30   31 1  
    33   31   32 1  
    34   33   32 1  
    35   35   34 1  
    36   39   36 1  
    37   36   38 1  
    38   41   38 2  
    39   42   41 1  
    40   39   42 2  
    41   40   39 1  
    42   40   37 2  
    43   17   14 am 
    44   28   19 am 
    45   40   35 1  
    46    2   43 1  
    47    3   44 1  
    48    4   45 1  
    49    7   46 1  
    50    8   47 1  
    51    9   48 1  
    52   12   49 1  
    53   12   50 1  
    54   12   51 1  
    55   13   52 1  
    56   13   53 1  
    57   13   54 1  
    58   17   55 1  
    59   18   56 1  
    60   21   57 1  
    61   21   58 1  
    62   22   59 1  
    63   22   60 1  
    64   23   61 1  
    65   23   62 1  
    66   24   63 1  
    67   26   64 1  
    68   26   65 1  
    69   27   66 1  
    70   27   67 1  
    71   29   68 1  
    72   30   69 1  
    73   30   70 1  
    74   31   71 1  
    75   31   72 1  
    76   32   73 1  
    77   32   74 1  
    78   33   75 1  
    79   33   76 1  
    80   34   77 1  
    81   34   78 1  
    82   35   79 1  
    83   35   80 1  
    84   38   81 1  
    85   41   82 1  
@<TRIPOS>SUBSTRUCTURE
     1 QWE         1

