### 
### Created by X-TOOL on Mon Sep 10 21:12:46 2018
### 

@<TRIPOS>MOLECULE
1a5g_ligand
   87    90     1     0     0
SMALL
GAST_HUCK


@<TRIPOS>ATOM
      1 C1         17.9370  -13.0140   20.9460 C.3       1 00L         0.1761
      2 C2         19.1340  -12.9300   19.9920 C.3       1 00L         0.0338
      3 C3         20.0460  -14.1410   20.3410 C.3       1 00L        -0.0027
      4 C4         19.6110  -16.2000   21.7990 C.3       1 00L        -0.0023
      5 C5         18.4750  -17.0050   22.4910 C.3       1 00L         0.0436
      6 C6         17.5080  -16.1580   23.2780 C.3       1 00L         0.0869
      7 C7         17.3450  -14.7490   22.6440 C.2       1 00L         0.2914
      8 N1         19.1030  -15.1160   20.9130 N.4       1 00L         0.3755
      9 N2         18.1770  -14.3160   21.6160 N.am      1 00L        -0.2113
     10 O1         16.3830  -14.0860   22.9910 O.2       1 00L        -0.3329
     11 C8         16.5330  -12.8940   20.3820 C.2       1 00L         0.2076
     12 O2         16.0150  -13.9840   20.0560 O.2       1 00L        -0.3943
     13 N3         16.1250  -16.7390   23.2510 N.4       1 00L         0.2244
     14 C9         17.7600  -16.1380   24.8070 C.3       1 00L         0.0348
     15 C10        19.1990  -15.7640   25.1780 C.ar      1 00L        -0.0383
     16 C11        20.2050  -16.7560   25.2760 C.ar      1 00L        -0.0603
     17 C12        21.5340  -16.4000   25.5810 C.ar      1 00L        -0.0686
     18 C13        21.9080  -15.0910   25.8400 C.ar      1 00L        -0.0687
     19 C14        20.9110  -14.1170   25.8250 C.ar      1 00L        -0.0686
     20 C15        19.5940  -14.4370   25.4480 C.ar      1 00L        -0.0603
     21 N          15.8030  -11.7310   20.2580 N.am      1 00L        -0.2770
     22 CA         14.3880  -11.6800   19.7870 C.3       1 00L         0.0851
     23 C          14.3520  -10.9100   18.4500 C.3       1 00L         0.1662
     24 O          13.2810  -10.5340   17.8590 O.3       1 00L        -0.3691
     25 CB         13.4550  -10.9210   20.7580 C.3       1 00L        -0.0221
     26 CG         12.9150  -11.8770   21.7720 C.3       1 00L        -0.0175
     27 CD         12.1100  -11.3370   22.8370 C.3       1 00L         0.0626
     28 NE         11.3720  -12.3250   23.5590 N.pl3     1 00L        -0.2723
     29 CZ         10.5880  -12.1520   24.5860 C.cat     1 00L         0.2882
     30 NH1        10.4390  -10.8990   25.0790 N.pl3     1 00L        -0.2849
     31 NH2         9.8600  -13.1360   25.1200 N.pl3     1 00L        -0.2849
     32 C1         14.2810  -12.2460   13.6500 C.ar      1 00L        -0.0411
     33 C2         13.7470  -11.3090   12.7470 C.ar      1 00L        -0.0603
     34 C3         12.4400  -11.5240   12.2560 C.ar      1 00L        -0.0686
     35 C4         11.6740  -12.6230   12.7000 C.ar      1 00L        -0.0687
     36 C5         12.2160  -13.5230   13.6610 C.ar      1 00L        -0.0686
     37 C6         13.5280  -13.3270   14.1320 C.ar      1 00L        -0.0603
     38 C7         15.7270  -12.0380   14.2340 C.3       1 00L         0.0011
     39 C8         15.7100  -12.9260   15.5360 C.3       1 00L         0.0405
     40 N1         14.7320  -12.3470   16.4930 N.am      1 00L        -0.2828
     41 C9         15.3770  -11.4490   17.4510 C.2       1 00L         0.2074
     42 O1         16.5140  -11.1040   17.4890 O.2       1 00L        -0.3941
     43 H1         18.0346  -12.2035   21.6832 H         1 00L         0.0857
     44 H2         19.6778  -11.9859   20.1432 H         1 00L         0.0367
     45 H3         18.7956  -12.9950   18.9474 H         1 00L         0.0367
     46 H4         20.8146  -13.8577   21.0751 H         1 00L         0.0824
     47 H5         20.5308  -14.5430   19.4391 H         1 00L         0.0824
     48 H6         20.2129  -16.8937   21.1936 H         1 00L         0.0822
     49 H7         20.2440  -15.7483   22.5770 H         1 00L         0.0822
     50 H8         18.9354  -17.7308   23.1774 H         1 00L         0.0365
     51 H9         17.9103  -17.5418   21.7145 H         1 00L         0.0365
     52 H10        18.6373  -15.5730   20.1446 H         1 00L         0.2305
     53 H11        15.5034  -16.1516   23.7845 H         1 00L         0.2000
     54 H12        16.1410  -17.6634   23.6526 H         1 00L         0.2000
     55 H13        15.8014  -16.7922   22.2978 H         1 00L         0.2000
     56 H14        17.5442  -17.1386   25.2098 H         1 00L         0.0472
     57 H15        17.0795  -15.4043   25.2637 H         1 00L         0.0472
     58 H16        19.9507  -17.7974   25.1151 H         1 00L         0.0557
     59 H17        22.2895  -17.1766   25.6141 H         1 00L         0.0599
     60 H18        22.9404  -14.8334   26.0471 H         1 00L         0.0559
     61 H19        21.1538  -13.0991   26.1077 H         1 00L         0.0599
     62 H20        18.8624  -13.6417   25.3626 H         1 00L         0.0557
     63 H21        16.2491  -10.8689   20.4984 H         1 00L         0.1857
     64 H22        14.0167  -12.7062   19.6493 H         1 00L         0.0607
     65 H23        14.7753   -9.9418   18.7556 H         1 00L         0.0861
     66 H24        13.5067  -10.0797   17.0557 H         1 00L         0.2134
     67 H25        12.6227  -10.4743   20.1943 H         1 00L         0.0291
     68 H26        14.0213  -10.1269   21.2666 H         1 00L         0.0291
     69 H27        13.7737  -12.3857   22.2344 H         1 00L         0.0300
     70 H28        12.2987  -12.6129   21.2347 H         1 00L         0.0300
     71 H29        11.3975  -10.6196   22.4039 H         1 00L         0.0689
     72 H30        12.7730  -10.8149   23.5426 H         1 00L         0.0689
     73 H31        11.4720  -13.2947   23.2265 H         1 00L         0.2642
     74 H32         9.8255  -10.7342   25.8898 H         1 00L         0.2615
     75 H33        10.9392  -10.1112   24.6430 H         1 00L         0.2615
     76 H34         9.9540  -14.0978   24.7637 H         1 00L         0.2615
     77 H35         9.2045  -12.9331   25.8881 H         1 00L         0.2615
     78 H36        14.3231  -10.4449   12.4362 H         1 00L         0.0557
     79 H37        12.0206  -10.8370   11.5299 H         1 00L         0.0599
     80 H38        10.6750  -12.7816   12.3102 H         1 00L         0.0559
     81 H39        11.6227  -14.3530   14.0272 H         1 00L         0.0599
     82 H40        13.9533  -14.0064   14.8618 H         1 00L         0.0557
     83 H41        15.9072  -10.9807   14.4781 H         1 00L         0.0446
     84 H42        16.4938  -12.3869   13.5267 H         1 00L         0.0446
     85 H43        16.7116  -12.9361   15.9906 H         1 00L         0.0542
     86 H44        15.4133  -13.9537   15.2796 H         1 00L         0.0542
     87 H45        13.7522  -12.5468   16.4834 H         1 00L         0.1853
@<TRIPOS>BOND
     1    1    2 1  
     2    1    9 1  
     3   11    1 1  
     4    2    3 1  
     5    8    3 1  
     6    4    5 1  
     7    8    4 1  
     8    6    5 1  
     9    7    6 1  
    10    6   13 1  
    11    6   14 1  
    12    9    7 am 
    13    7   10 2  
    14    9    8 1  
    15   11   12 2  
    16   21   11 am 
    17   14   15 1  
    18   15   16 ar 
    19   15   20 ar 
    20   16   17 ar 
    21   17   18 ar 
    22   19   18 ar 
    23   20   19 ar 
    24   22   21 1  
    25   23   22 1  
    26   22   25 1  
    27   23   24 1  
    28   41   23 1  
    29   25   26 1  
    30   26   27 1  
    31   27   28 1  
    32   28   29 ar 
    33   29   30 ar 
    34   29   31 ar 
    35   32   33 ar 
    36   32   37 ar 
    37   38   32 1  
    38   33   34 ar 
    39   34   35 ar 
    40   36   35 ar 
    41   37   36 ar 
    42   39   38 1  
    43   40   39 1  
    44   40   41 am 
    45   41   42 2  
    46    1   43 1  
    47    2   44 1  
    48    2   45 1  
    49    3   46 1  
    50    3   47 1  
    51    4   48 1  
    52    4   49 1  
    53    5   50 1  
    54    5   51 1  
    55    8   52 1  
    56   13   53 1  
    57   13   54 1  
    58   13   55 1  
    59   14   56 1  
    60   14   57 1  
    61   16   58 1  
    62   17   59 1  
    63   18   60 1  
    64   19   61 1  
    65   20   62 1  
    66   21   63 1  
    67   22   64 1  
    68   23   65 1  
    69   24   66 1  
    70   25   67 1  
    71   25   68 1  
    72   26   69 1  
    73   26   70 1  
    74   27   71 1  
    75   27   72 1  
    76   28   73 1  
    77   30   74 1  
    78   30   75 1  
    79   31   76 1  
    80   31   77 1  
    81   33   78 1  
    82   34   79 1  
    83   35   80 1  
    84   36   81 1  
    85   37   82 1  
    86   38   83 1  
    87   38   84 1  
    88   39   85 1  
    89   39   86 1  
    90   40   87 1  
@<TRIPOS>SUBSTRUCTURE
     1 00L         1

