### 
### Created by X-TOOL on Mon Sep 10 21:12:46 2018
### 

@<TRIPOS>MOLECULE
1a5v_ligand
   34    35     1     0     0
SMALL
GAST_HUCK


@<TRIPOS>ATOM
      1 C1         37.2550   26.6020   58.5650 C.ar      1 Y3          0.1011
      2 C2         36.7650   25.3980   58.1140 C.ar      1 Y3         -0.0105
      3 C3         37.6340   24.3720   57.8150 C.ar      1 Y3          0.1010
      4 C4         38.9990   24.5560   57.9280 C.ar      1 Y3         -0.0476
      5 C5         39.4930   25.7680   58.3650 C.ar      1 Y3         -0.0360
      6 C6         38.6250   26.8000   58.6820 C.ar      1 Y3          0.0455
      7 C7         39.1290   28.0210   59.1110 C.ar      1 Y3          0.0828
      8 C8         40.5050   28.1920   59.2220 C.ar      1 Y3         -0.0182
      9 C9         41.3660   27.1500   58.9090 C.ar      1 Y3          0.0957
     10 C10        40.8580   25.9420   58.4820 C.ar      1 Y3         -0.0514
     11 S11        36.9840   22.7880   57.2870 S.o2      1 Y3          0.1057
     12 O12        36.2700   22.2070   58.3790 O.3       1 Y3         -0.2499
     13 O13        38.0650   21.9290   56.9130 O.2       1 Y3         -0.1423
     14 O14        36.1060   22.9840   56.1740 O.2       1 Y3         -0.1423
     15 N15        38.2810   29.0120   59.4140 N.am      1 Y3         -0.2286
     16 C16        38.6060   30.3040   59.4440 C.2       1 Y3          0.2045
     17 O17        39.7330   30.7300   59.1980 O.2       1 Y3         -0.3829
     18 C18        37.4790   31.2650   59.8130 C.3       1 Y3          0.0326
     19 S19        43.1540   27.3440   59.0480 S.o2      1 Y3          0.1046
     20 O20        43.7810   26.2680   58.3560 O.3       1 Y3         -0.2500
     21 O21        43.5280   27.3100   60.4180 O.2       1 Y3         -0.1424
     22 O22        43.5620   28.5970   58.4910 O.2       1 Y3         -0.1424
     23 O23        36.3780   27.6000   58.8850 O.3       1 Y3         -0.3285
     24 H1         35.6969   25.2571   57.9942 H         1 Y3          0.0486
     25 H2         39.6792   23.7510   57.6742 H         1 Y3          0.0481
     26 H3         40.9060   29.1427   59.5542 H         1 Y3          0.0441
     27 H4         41.5306   25.1277   58.2378 H         1 Y3          0.0441
     28 H5         35.5627   22.7862   58.6374 H         1 Y3          0.2449
     29 H6         37.3371   28.7651   59.6333 H         1 Y3          0.2312
     30 H7         37.8601   32.2969   59.8062 H         1 Y3          0.0473
     31 H8         37.1021   31.0200   60.8170 H         1 Y3          0.0473
     32 H9         36.6626   31.1708   59.0818 H         1 Y3          0.0473
     33 H10        44.7243   26.3501   58.4334 H         1 Y3          0.2449
     34 H11        35.4889   27.2950   58.7471 H         1 Y3          0.2517
@<TRIPOS>BOND
     1    1   23 1  
     2    1    6 ar 
     3    1    2 ar 
     4    2    3 ar 
     5    3   11 1  
     6    3    4 ar 
     7    4    5 ar 
     8    5   10 ar 
     9    5    6 ar 
    10    6    7 ar 
    11    7   15 1  
    12    7    8 ar 
    13    8    9 ar 
    14    9   19 1  
    15    9   10 ar 
    16   19   22 2  
    17   19   21 2  
    18   19   20 1  
    19   15   16 am 
    20   16   18 1  
    21   16   17 2  
    22   11   14 2  
    23   11   13 2  
    24   11   12 1  
    25    2   24 1  
    26    4   25 1  
    27    8   26 1  
    28   10   27 1  
    29   12   28 1  
    30   15   29 1  
    31   18   30 1  
    32   18   31 1  
    33   18   32 1  
    34   20   33 1  
    35   23   34 1  
@<TRIPOS>SUBSTRUCTURE
     1 Y3          1

