### 
### Created by X-TOOL on Mon Sep 10 21:12:46 2018
### 

@<TRIPOS>MOLECULE
1a61_ligand
   73    76     1     0     0
SMALL
GAST_HUCK


@<TRIPOS>ATOM
      1 C1         19.0370  -15.6150   25.1650 C.ar      1 00N        -0.0383
      2 C2         20.0690  -16.5970   25.1350 C.ar      1 00N        -0.0603
      3 C3         21.3830  -16.2100   25.4730 C.ar      1 00N        -0.0686
      4 C4         21.7440  -14.8830   25.7230 C.ar      1 00N        -0.0687
      5 C5         20.7080  -13.9430   25.7400 C.ar      1 00N        -0.0686
      6 C6         19.3550  -14.2880   25.4280 C.ar      1 00N        -0.0603
      7 N1         15.5860  -16.5550   23.3450 N.4       1 00N         0.2244
      8 N2         17.6880  -14.4220   21.7280 N.am      1 00N        -0.2113
      9 N3         18.7100  -15.2140   21.0630 N.4       1 00N         0.3755
     10 O1         16.0220  -14.0220   23.2360 O.2       1 00N        -0.3329
     11 C7         17.6720  -16.2780   24.8000 C.3       1 00N         0.0348
     12 C8         16.9120  -14.7780   22.7140 C.2       1 00N         0.2914
     13 C9         17.0120  -16.1670   23.3240 C.3       1 00N         0.0869
     14 C10        17.9490  -17.0910   22.5950 C.3       1 00N         0.0436
     15 C11        19.0630  -16.4860   21.7100 C.3       1 00N        -0.0023
     16 C12        19.6960  -14.1920   20.7210 C.3       1 00N        -0.0027
     17 C13        18.6360  -13.2090   20.0030 C.3       1 00N         0.0338
     18 C14        17.7120  -13.0190   21.1530 C.3       1 00N         0.1761
     19 C15        16.4450  -12.9930   20.5090 C.2       1 00N         0.2077
     20 O2         15.9560  -13.9920   19.7990 O.2       1 00N        -0.3943
     21 N          15.3260  -12.0680   20.5520 N.am      1 00N        -0.2765
     22 CA         14.1450  -11.3480   20.0420 C.3       1 00N         0.0846
     23 C          14.3350  -10.5940   18.7500 C.3       1 00N         0.1476
     24 O          13.4310  -10.0020   18.1220 O.3       1 00N        -0.3688
     25 CB         13.1790  -10.7500   21.0510 C.3       1 00N        -0.0216
     26 CG         12.7560  -11.8500   21.9990 C.3       1 00N        -0.0174
     27 CD         11.8340  -11.2710   23.0490 C.3       1 00N         0.0626
     28 NE         11.3950  -12.3040   23.9700 N.pl3     1 00N        -0.2723
     29 CZ         10.5320  -12.0930   24.9790 C.cat     1 00N         0.2882
     30 NH1        10.2130  -10.7730   25.0850 N.pl3     1 00N        -0.2849
     31 NH2         9.5290  -12.9890   25.2030 N.pl3     1 00N        -0.2849
     32 C1         15.2430  -11.1340   17.6010 C.2       1 00N         0.1228
     33 N1         16.6190  -10.9610   17.4630 N.2       1 00N        -0.3222
     34 C2         17.4270  -11.3970   16.3700 C.2       1 00N        -0.0304
     35 C3         16.5370  -11.9990   15.5410 C.2       1 00N         0.0024
     36 S1         14.8770  -12.0620   16.1050 S.3       1 00N        -0.0036
     37 H1         19.8488  -17.6216   24.8579 H         1 00N         0.0557
     38 H2         22.1468  -16.9761   25.5419 H         1 00N         0.0599
     39 H3         22.7752  -14.5965   25.8951 H         1 00N         0.0559
     40 H4         20.9387  -12.9160   25.9990 H         1 00N         0.0599
     41 H5         18.5872  -13.5235   25.3971 H         1 00N         0.0557
     42 H6         15.4952  -17.4800   23.7351 H         1 00N         0.2000
     43 H7         15.2224  -16.5497   22.4049 H         1 00N         0.2000
     44 H8         15.0678  -15.9000   23.9094 H         1 00N         0.2000
     45 H9         18.3203  -15.5137   20.1830 H         1 00N         0.2305
     46 H10        16.9326  -15.8563   25.4967 H         1 00N         0.0472
     47 H11        17.7925  -17.3530   24.9996 H         1 00N         0.0472
     48 H12        17.3317  -17.7283   21.9448 H         1 00N         0.0365
     49 H13        18.4440  -17.7131   23.3552 H         1 00N         0.0365
     50 H14        19.9475  -16.3156   22.3413 H         1 00N         0.0822
     51 H15        19.3089  -17.2142   20.9231 H         1 00N         0.0822
     52 H16        20.4739  -14.5587   20.0351 H         1 00N         0.0824
     53 H17        20.1698  -13.7400   21.6049 H         1 00N         0.0824
     54 H18        18.1400  -13.6871   19.1455 H         1 00N         0.0367
     55 H19        19.0975  -12.2643   19.6797 H         1 00N         0.0367
     56 H20        17.9393  -12.1938   21.8439 H         1 00N         0.0857
     57 H21        15.4018  -11.7015   21.4793 H         1 00N         0.1858
     58 H22        13.5430  -12.1970   19.6860 H         1 00N         0.0614
     59 H23        14.9245   -9.7529   19.1436 H         1 00N         0.0877
     60 H24        13.7978   -9.6036   17.3415 H         1 00N         0.2144
     61 H25        12.2981  -10.3459   20.5308 H         1 00N         0.0292
     62 H26        13.6755   -9.9442   21.6115 H         1 00N         0.0292
     63 H27        13.6445  -12.2791   22.4852 H         1 00N         0.0300
     64 H28        12.2287  -12.6363   21.4390 H         1 00N         0.0300
     65 H29        10.9555  -10.8301   22.5552 H         1 00N         0.0689
     66 H30        12.3696  -10.4908   23.6097 H         1 00N         0.0689
     67 H31        11.7672  -13.2559   23.8426 H         1 00N         0.2642
     68 H32         9.5592  -10.4583   25.8161 H         1 00N         0.2615
     69 H33        10.6255  -10.0896   24.4341 H         1 00N         0.2615
     70 H34         9.7166  -13.9995   25.1356 H         1 00N         0.2615
     71 H35         8.5837  -12.6553   25.4396 H         1 00N         0.2615
     72 H36        18.5006  -11.2756   16.2339 H         1 00N         0.0533
     73 H37        16.8359  -12.4185   14.5815 H         1 00N         0.0664
@<TRIPOS>BOND
     1    1    2 ar 
     2    1    6 ar 
     3   11    1 1  
     4    2    3 ar 
     5    3    4 ar 
     6    5    4 ar 
     7    6    5 ar 
     8   13    7 1  
     9    8    9 1  
    10   12    8 am 
    11    8   18 1  
    12    9   15 1  
    13    9   16 1  
    14   12   10 2  
    15   13   11 1  
    16   12   13 1  
    17   13   14 1  
    18   14   15 1  
    19   16   17 1  
    20   17   18 1  
    21   18   19 1  
    22   19   20 2  
    23   19   21 am 
    24   21   22 1  
    25   22   23 1  
    26   22   25 1  
    27   23   24 1  
    28   23   32 1  
    29   25   26 1  
    30   26   27 1  
    31   27   28 1  
    32   28   29 ar 
    33   29   30 ar 
    34   29   31 ar 
    35   32   33 2  
    36   32   36 1  
    37   33   34 1  
    38   34   35 2  
    39   35   36 1  
    40    2   37 1  
    41    3   38 1  
    42    4   39 1  
    43    5   40 1  
    44    6   41 1  
    45    7   42 1  
    46    7   43 1  
    47    7   44 1  
    48    9   45 1  
    49   11   46 1  
    50   11   47 1  
    51   14   48 1  
    52   14   49 1  
    53   15   50 1  
    54   15   51 1  
    55   16   52 1  
    56   16   53 1  
    57   17   54 1  
    58   17   55 1  
    59   18   56 1  
    60   21   57 1  
    61   22   58 1  
    62   23   59 1  
    63   24   60 1  
    64   25   61 1  
    65   25   62 1  
    66   26   63 1  
    67   26   64 1  
    68   27   65 1  
    69   27   66 1  
    70   28   67 1  
    71   30   68 1  
    72   30   69 1  
    73   31   70 1  
    74   31   71 1  
    75   34   72 1  
    76   35   73 1  
@<TRIPOS>SUBSTRUCTURE
     1 00N         1

