### 
### Created by X-TOOL on Mon Sep 10 21:12:46 2018
### 

@<TRIPOS>MOLECULE
1a69_ligand
   31    33     1     0     0
SMALL
GAST_HUCK


@<TRIPOS>ATOM
      1 N1        -18.6290   72.4960   64.7810 N.am      1 FMB        -0.2040
      2 C2        -17.6590   72.8430   65.6920 C.2       1 FMB         0.1155
      3 N3        -17.4340   72.1880   66.8280 N.2       1 FMB        -0.3133
      4 C4        -18.2650   71.1350   66.9710 C.2       1 FMB         0.0514
      5 C5        -19.2640   70.7080   66.1180 C.2       1 FMB         0.1658
      6 C6        -19.4960   71.4120   64.9200 C.2       1 FMB         0.2557
      7 O6        -20.3350   71.1770   64.0460 O.2       1 FMB        -0.3928
      8 N7        -19.9000   69.5840   66.6230 N.pl3     1 FMB        -0.2175
      9 N8        -19.2890   69.3560   67.7600 N.2       1 FMB        -0.2166
     10 C9        -18.2820   70.2630   68.0340 C.2       1 FMB         0.0647
     11 C1'       -17.5510   69.7970   69.2390 C.3       1 FMB         0.1274
     12 C2'       -16.4120   70.7300   69.6340 C.3       1 FMB         0.1185
     13 O2'       -15.2040   69.9950   69.6560 O.3       1 FMB        -0.3847
     14 C3'       -16.8460   71.3300   70.9950 C.3       1 FMB         0.1135
     15 O3'       -16.1160   70.8000   72.1220 O.3       1 FMB        -0.3863
     16 C4'       -18.3190   70.9540   71.1130 C.3       1 FMB         0.1128
     17 O4'       -18.4590   69.7460   70.3290 O.3       1 FMB        -0.3544
     18 C5'       -19.2870   72.0220   70.6090 C.3       1 FMB         0.0731
     19 O5'       -20.6560   71.5800   70.5560 O.3       1 FMB        -0.3924
     20 H1        -18.7192   73.0608   63.9607 H         1 FMB         0.2524
     21 H2        -17.0360   73.7081   65.4696 H         1 FMB         0.1425
     22 H3        -20.6742   69.0511   66.2017 H         1 FMB         0.2487
     23 H4        -17.1436   68.7942   69.0429 H         1 FMB         0.0772
     24 H5        -16.3090   71.5421   68.8992 H         1 FMB         0.0667
     25 H6        -14.4890   70.5703   69.9016 H         1 FMB         0.2102
     26 H7        -16.7244   72.4231   70.9772 H         1 FMB         0.0648
     27 H8        -15.1904   70.9842   72.0133 H         1 FMB         0.2100
     28 H9        -18.5552   70.7483   72.1675 H         1 FMB         0.0648
     29 H10       -18.9786   72.3209   69.5963 H         1 FMB         0.0584
     30 H11       -19.2278   72.8904   71.2816 H         1 FMB         0.0584
     31 H12       -20.7246   70.8350   69.9705 H         1 FMB         0.2095
@<TRIPOS>BOND
     1    1    2 1  
     2    1    6 am 
     3    2    3 2  
     4    3    4 1  
     5    4    5 2  
     6    4   10 1  
     7    5    6 1  
     8    5    8 1  
     9    6    7 2  
    10    8    9 1  
    11    9   10 2  
    12   10   11 1  
    13   11   12 1  
    14   11   17 1  
    15   12   13 1  
    16   12   14 1  
    17   14   15 1  
    18   14   16 1  
    19   16   17 1  
    20   16   18 1  
    21   18   19 1  
    22    1   20 1  
    23    2   21 1  
    24    8   22 1  
    25   11   23 1  
    26   12   24 1  
    27   13   25 1  
    28   14   26 1  
    29   15   27 1  
    30   16   28 1  
    31   18   29 1  
    32   18   30 1  
    33   19   31 1  
@<TRIPOS>SUBSTRUCTURE
     1 FMB         1

