### 
### Created by X-TOOL on Mon Sep 10 21:12:47 2018
### 

@<TRIPOS>MOLECULE
1a7c_ligand
   71    70     1     0     0
SMALL
GAST_HUCK


@<TRIPOS>ATOM
      1 N          14.2550   16.6390   35.4590 N.am      1 THR        -0.2635
      2 CN         14.4260   15.7480   36.4300 C.2       1 ACE         0.1752
      3 ON         15.0440   14.6940   36.2740 O.2       1 ACE        -0.3972
      4 CM         13.8150   16.1030   37.7720 C.3       1 ACE         0.0258
      5 CA         14.7900   16.4270   34.1170 C.3       1 THR         0.1564
      6 CB         13.7780   15.6640   33.2120 C.3       1 THR         0.0924
      7 OG1        13.5330   14.3620   33.7530 O.3       1 THR        -0.3874
      8 CG2        14.3070   15.5180   31.7870 C.3       1 THR        -0.0346
      9 C          15.1480   17.7410   33.4290 C.2       1 THR         0.2065
     10 O          14.3930   18.7120   33.4740 O.2       1 THR        -0.3943
     11 N          16.3290   17.7710   32.8300 N.am      1 VAL        -0.2634
     12 CA         16.7890   18.9330   32.0810 C.3       1 VAL         0.1333
     13 C          17.2030   18.3710   30.7160 C.2       1 VAL         0.2041
     14 O          17.9530   17.3900   30.6420 O.2       1 VAL        -0.3944
     15 CB         18.0020   19.6300   32.7540 C.3       1 VAL        -0.0063
     16 CG1        18.4020   20.8580   31.9540 C.3       1 VAL        -0.0584
     17 CG2        17.6630   20.0300   34.1820 C.3       1 VAL        -0.0584
     18 N          16.6760   18.9530   29.6430 N.am      1 ALA        -0.2640
     19 CA         16.9950   18.4800   28.2990 C.3       1 ALA         0.1282
     20 C          17.0540   19.6180   27.2990 C.2       1 ALA         0.2037
     21 O          16.3630   20.6210   27.4440 O.2       1 ALA        -0.3944
     22 CB         15.9760   17.4380   27.8500 C.3       1 ALA        -0.0244
     23 N          17.8950   19.4520   26.2860 N.am      1 SER        -0.2616
     24 CA         18.0680   20.4520   25.2390 C.3       1 SER         0.1539
     25 C          18.4160   19.7720   23.9420 C.2       1 SER         0.2062
     26 O          19.0550   18.7210   23.9320 O.2       1 SER        -0.3943
     27 CB         19.1930   21.4320   25.5810 C.3       1 SER         0.0843
     28 OG         18.7800   22.3780   26.5470 O.3       1 SER        -0.3903
     29 N          18.0130   20.4050   22.8500 N.am      1 SER        -0.2615
     30 CA         18.2730   19.9110   21.5100 C.3       1 SER         0.1536
     31 CB         17.0030   19.3060   20.9230 C.3       1 SER         0.0843
     32 OG         17.2350   18.8930   19.5940 O.3       1 SER        -0.3903
     33 NT         19.8440   21.0390   19.9190 N.am      1 NH2        -0.2989
     34 C          18.7370   21.0760   20.6440 C.2       1 SER         0.2015
     35 O          18.2710   22.2100   20.9000 O.2       1 SER        -0.3947
     36 H1         13.7460   17.4777   35.6527 H         1 THR         0.1883
     37 H2         14.0191   15.2972   38.4925 H         1 ACE         0.0467
     38 H3         12.7279   16.2268   37.6587 H         1 ACE         0.0467
     39 H4         14.2549   17.0424   38.1382 H         1 ACE         0.0467
     40 H5         15.7036   15.8214   34.2100 H         1 THR         0.0826
     41 H6         12.8339   16.2278   33.1848 H         1 THR         0.0639
     42 H7         12.9154   13.9007   33.1978 H         1 THR         0.2101
     43 H8         13.5700   14.9762   31.1760 H         1 THR         0.0257
     44 H9         15.2533   14.9574   31.8028 H         1 THR         0.0257
     45 H10        14.4787   16.5152   31.3556 H         1 THR         0.0257
     46 H11        16.9243   16.9700   32.8939 H         1 VAL         0.1883
     47 H12        15.9715   19.6606   31.9702 H         1 VAL         0.0802
     48 H13        18.8478   18.9270   32.7746 H         1 VAL         0.0343
     49 H14        19.2615   21.3461   32.4367 H         1 VAL         0.0234
     50 H15        17.5566   21.5606   31.9134 H         1 VAL         0.0234
     51 H16        18.6777   20.5565   30.9327 H         1 VAL         0.0234
     52 H17        17.3746   19.1361   34.7545 H         1 VAL         0.0234
     53 H18        16.8276   20.7455   34.1739 H         1 VAL         0.0234
     54 H19        18.5417   20.4975   34.6503 H         1 VAL         0.0234
     55 H20        16.0521   19.7259   29.7582 H         1 ALA         0.1883
     56 H21        17.9860   18.0037   28.3321 H         1 ALA         0.0797
     57 H22        16.2284   17.0910   26.8372 H         1 ALA         0.0277
     58 H23        14.9715   17.8862   27.8443 H         1 ALA         0.0277
     59 H24        15.9931   16.5852   28.5446 H         1 ALA         0.0277
     60 H25        18.4306   18.6088   26.2389 H         1 SER         0.1884
     61 H26        17.1272   21.0096   25.1208 H         1 SER         0.0823
     62 H27        19.4945   21.9635   24.6663 H         1 SER         0.0606
     63 H28        20.0504   20.8680   25.9769 H         1 SER         0.0606
     64 H29        18.5225   21.9256   27.3417 H         1 SER         0.2097
     65 H30        17.5071   21.2614   22.9536 H         1 SER         0.1884
     66 H31        19.0592   19.1425   21.5468 H         1 SER         0.0823
     67 H32        16.2012   20.0589   20.9357 H         1 SER         0.0606
     68 H33        16.7003   18.4377   21.5267 H         1 SER         0.0606
     69 H34        17.4953   19.6425   19.0715 H         1 SER         0.2097
     70 H35        20.1064   21.8300   19.3663 H         1 NH2         0.1815
     71 H36        20.4178   20.2200   19.9240 H         1 NH2         0.1815
@<TRIPOS>BOND
     1    1    2 am 
     2    1    5 1  
     3    2    3 2  
     4    2    4 1  
     5    5    6 1  
     6    5    9 1  
     7    6    7 1  
     8    6    8 1  
     9    9   10 2  
    10    9   11 am 
    11   11   12 1  
    12   12   13 1  
    13   12   15 1  
    14   13   14 2  
    15   13   18 am 
    16   15   16 1  
    17   15   17 1  
    18   18   19 1  
    19   19   20 1  
    20   19   22 1  
    21   20   21 2  
    22   20   23 am 
    23   23   24 1  
    24   24   25 1  
    25   24   27 1  
    26   25   26 2  
    27   25   29 am 
    28   27   28 1  
    29   29   30 1  
    30   30   31 1  
    31   30   34 1  
    32   31   32 1  
    33   34   33 am 
    34   34   35 2  
    35    1   36 1  
    36    4   37 1  
    37    4   38 1  
    38    4   39 1  
    39    5   40 1  
    40    6   41 1  
    41    7   42 1  
    42    8   43 1  
    43    8   44 1  
    44    8   45 1  
    45   11   46 1  
    46   12   47 1  
    47   15   48 1  
    48   16   49 1  
    49   16   50 1  
    50   16   51 1  
    51   17   52 1  
    52   17   53 1  
    53   17   54 1  
    54   18   55 1  
    55   19   56 1  
    56   22   57 1  
    57   22   58 1  
    58   22   59 1  
    59   23   60 1  
    60   24   61 1  
    61   27   62 1  
    62   27   63 1  
    63   28   64 1  
    64   29   65 1  
    65   30   66 1  
    66   31   67 1  
    67   31   68 1  
    68   32   69 1  
    69   33   70 1  
    70   33   71 1  
@<TRIPOS>SUBSTRUCTURE
     1 THR         1

