### 
### Created by X-TOOL on Fri Nov 18 12:11:38 2016
### 

@<TRIPOS>MOLECULE
1a7t_ligand
   26    26     1     0     0
SMALL
GAST_HUCK


@<TRIPOS>ATOM
      1 O1         34.6940   41.1480   37.8690 O.3       1 MES        -0.3693
      2 C2         35.8530   41.8280   37.4730 C.3       1 MES         0.0878
      3 C3         35.4420   43.0960   36.6730 C.3       1 MES        -0.0078
      4 N4         34.5530   42.7110   35.5840 N.4       1 MES         0.2397
      5 C5         33.4300   41.8790   35.9390 C.3       1 MES        -0.0078
      6 C6         33.9060   40.6910   36.7700 C.3       1 MES         0.0878
      7 C7         34.2210   43.7160   34.6110 C.3       1 MES        -0.0095
      8 C8         35.4540   44.3360   34.0050 C.3       1 MES         0.1322
      9 S          35.5370   44.3750   32.2200 S.o2      1 MES         0.0848
     10 O1S        35.9610   43.0850   31.7370 O.3       1 MES        -0.2538
     11 O2S        34.3420   44.7290   31.5700 O.2       1 MES        -0.1472
     12 O3S        36.4920   45.3840   31.8870 O.2       1 MES        -0.1472
     13 H1         36.4669   41.1729   36.8374 H         1 MES         0.0613
     14 H2         36.4304   42.1228   38.3616 H         1 MES         0.0613
     15 H3         36.3408   43.5778   36.2607 H         1 MES         0.0837
     16 H4         34.9224   43.7992   37.3404 H         1 MES         0.0837
     17 H5         35.1360   42.0813   35.0551 H         1 MES         0.2036
     18 H6         32.9440   41.5120   35.0230 H         1 MES         0.0837
     19 H7         32.7099   42.4689   36.5251 H         1 MES         0.0837
     20 H8         33.0334   40.1405   37.1515 H         1 MES         0.0613
     21 H9         34.5126   40.0249   36.1389 H         1 MES         0.0613
     22 H10        33.6298   44.5041   35.1003 H         1 MES         0.0831
     23 H11        33.6246   43.2537   33.8106 H         1 MES         0.0831
     24 H12        36.3246   43.7694   34.3670 H         1 MES         0.0579
     25 H13        35.5166   45.3737   34.3645 H         1 MES         0.0579
     26 H14        35.2881   42.4411   31.9244 H         1 MES         0.2445
@<TRIPOS>BOND
     1    1    2 1  
     2    1    6 1  
     3    2    3 1  
     4    3    4 1  
     5    4    5 1  
     6    4    7 1  
     7    5    6 1  
     8    7    8 1  
     9    8    9 1  
    10    9   10 1  
    11    9   11 2  
    12    9   12 2  
    13    2   13 1  
    14    2   14 1  
    15    3   15 1  
    16    3   16 1  
    17    4   17 1  
    18    5   18 1  
    19    5   19 1  
    20    6   20 1  
    21    6   21 1  
    22    7   22 1  
    23    7   23 1  
    24    8   24 1  
    25    8   25 1  
    26   10   26 1  
@<TRIPOS>SUBSTRUCTURE
     1 MES         1

