### 
### Created by X-TOOL on Mon Sep 10 21:12:47 2018
### 

@<TRIPOS>MOLECULE
1a85_ligand
   55    55     1     0     0
SMALL
GAST_HUCK


@<TRIPOS>ATOM
      1 N          25.6970   59.9730   53.9180 N.am      1 0DY        -0.1620
      2 OH         24.7240   58.9940   54.0170 O.3       1 0DY        -0.2716
      3 C1         26.9920   59.6330   53.9010 C.2       1 0DY         0.2212
      4 O1         27.3890   58.4410   53.9480 O.2       1 0DY        -0.3933
      5 CA         27.9370   60.7550   53.4380 C.3       1 0DY         0.1391
      6 CB         29.2270   60.8700   54.3090 C.3       1 0DY        -0.0139
      7 CG         30.0990   62.1060   54.1260 C.3       1 0DY        -0.0424
      8 CD1        29.7750   63.0730   55.2430 C.3       1 0DY        -0.0624
      9 CD2        31.5530   61.6930   54.1660 C.3       1 0DY        -0.0624
     10 C          28.2790   60.4970   51.9860 C.2       1 0DY         0.2008
     11 O          27.8040   61.2060   51.0980 O.2       1 0DY        -0.3933
     12 H1         25.4326   60.9356   53.8591 H         1 0DY         0.2218
     13 H2         23.8656   59.4010   54.0156 H         1 0DY         0.2490
     14 N          29.0890   59.4860   51.7210 N.am      1 0DY        -0.2613
     15 CA         29.4430   59.2330   50.3360 C.3       1 0DY         0.1477
     16 C          28.3500   58.4080   49.6300 C.2       1 0DY         0.2058
     17 O          28.5010   58.0280   48.4590 O.2       1 0DY        -0.3942
     18 CB         30.7990   58.5590   50.2130 C.3       1 0DY         0.0773
     19 CG         31.2200   58.3710   48.7540 C.2       1 0DY         0.1780
     20 OD1        31.5670   57.2660   48.3610 O.2       1 0DY        -0.3970
     21 ND2        31.2300   59.4580   47.9560 N.am      1 0DY        -0.3007
     22 H3         27.3995   61.7120   53.5100 H         1 0DY         0.0774
     23 H4         29.8517   59.9920   54.0880 H         1 0DY         0.0318
     24 H5         28.9148   60.8418   55.3634 H         1 0DY         0.0318
     25 N          27.2920   58.0690   50.3740 N.am      1 0DY        -0.2738
     26 CB         26.1430   57.3420   49.8480 C.3       1 0DY         0.0616
     27 CG         26.0560   55.9240   49.3880 C.ar      1 0DY        -0.0330
     28 CD1        26.8460   54.9160   49.9950 C.ar      1 0DY        -0.0717
     29 CE1        26.6850   53.5720   49.6810 C.ar      1 0DY        -0.0801
     30 CD2        25.1110   55.5570   48.4270 C.ar      1 0DY        -0.0420
     31 CE2        24.9480   54.2090   48.1140 C.ar      1 0DY         0.0282
     32 CZ         25.7300   53.2130   48.7240 C.ar      1 0DY        -0.0516
     33 NE2        23.9800   53.9090   47.2730 N.pl3     1 0DY        -0.3383
     34 H6         29.8819   62.5784   53.1566 H         1 0DY         0.0298
     35 H7         30.3919   63.9773   55.1355 H         1 0DY         0.0232
     36 H8         29.9866   62.5979   56.2122 H         1 0DY         0.0232
     37 H9         28.7109   63.3471   55.1936 H         1 0DY         0.0232
     38 H10        31.7576   60.9915   53.3438 H         1 0DY         0.0232
     39 H11        31.7690   61.2041   55.1274 H         1 0DY         0.0232
     40 H12        32.1901   62.5829   54.0559 H         1 0DY         0.0232
     41 H13        29.4484   58.9106   52.4556 H         1 0DY         0.1886
     42 H14        29.5090   60.2061   49.8274 H         1 0DY         0.0826
     43 H15        30.7498   57.5727   50.6975 H         1 0DY         0.0551
     44 H16        31.5510   59.1802   50.7215 H         1 0DY         0.0551
     45 H17        31.4998   59.3717   46.9970 H         1 0DY         0.1814
     46 H18        30.9676   60.3503   48.3233 H         1 0DY         0.1814
     47 H19        27.2887   58.3272   51.3401 H         1 0DY         0.1878
     48 H20        25.8224   57.9317   48.9766 H         1 0DY         0.0681
     49 H21        25.3850   57.4185   50.6415 H         1 0DY         0.0681
     50 H22        27.5960   55.2012   50.7238 H         1 0DY         0.0447
     51 H23        27.2886   52.8153   50.1689 H         1 0DY         0.0566
     52 H24        24.5117   56.3117   47.9307 H         1 0DY         0.0451
     53 H25        25.5937   52.1720   48.4542 H         1 0DY         0.0459
     54 H26        23.8148   52.9278   47.0067 H         1 0DY         0.1718
     55 H27        23.3881   54.6555   46.8816 H         1 0DY         0.1718
@<TRIPOS>BOND
     1    1   12 1  
     2    3    1 am 
     3    1    2 1  
     4    2   13 1  
     5    5    3 1  
     6    3    4 2  
     7   10    5 1  
     8    5    6 1  
     9    6    7 1  
    10    7    9 1  
    11    7    8 1  
    12   10   11 2  
    13   16   15 1  
    14   15   18 1  
    15   15   14 1  
    16    5   22 1  
    17   18   19 1  
    18   19   20 2  
    19   19   21 am 
    20    6   23 1  
    21    6   24 1  
    22   16   17 2  
    23    7   34 1  
    24   25   26 1  
    25   26   27 1  
    26   27   30 ar 
    27   27   28 ar 
    28   28   29 ar 
    29   29   32 ar 
    30   31   32 ar 
    31   31   33 1  
    32   30   31 ar 
    33    8   35 1  
    34    8   36 1  
    35   14   10 am 
    36   16   25 am 
    37    8   37 1  
    38    9   38 1  
    39    9   39 1  
    40    9   40 1  
    41   14   41 1  
    42   15   42 1  
    43   18   43 1  
    44   18   44 1  
    45   21   45 1  
    46   21   46 1  
    47   25   47 1  
    48   26   48 1  
    49   26   49 1  
    50   28   50 1  
    51   29   51 1  
    52   30   52 1  
    53   32   53 1  
    54   33   54 1  
    55   33   55 1  
@<TRIPOS>SUBSTRUCTURE
     1 0DY         1

