### 
### Created by X-TOOL on Mon Sep 10 21:12:47 2018
### 

@<TRIPOS>MOLECULE
1a86_ligand
   51    51     1     0     0
SMALL
GAST_HUCK


@<TRIPOS>ATOM
      1 N          25.1650   59.6390   53.3200 N.am      1 0ZB        -0.1620
      2 OH         24.3590   58.8820   54.1730 O.3       1 0ZB        -0.2716
      3 C1         26.3830   59.3710   53.7470 C.2       1 0ZB         0.2212
      4 O1         26.6800   58.2420   54.1830 O.2       1 0ZB        -0.3933
      5 CA         27.4380   60.4370   53.3710 C.3       1 0ZB         0.1391
      6 CB         28.5690   60.5180   54.4160 C.3       1 0ZB        -0.0139
      7 CG         28.4070   61.4390   55.6420 C.3       1 0ZB        -0.0424
      8 CD1        28.4010   62.8960   55.2200 C.3       1 0ZB        -0.0624
      9 CD2        27.1420   61.1310   56.4160 C.3       1 0ZB        -0.0624
     10 C          28.0190   60.3780   51.9550 C.2       1 0ZB         0.2007
     11 O          27.9030   61.3360   51.1850 O.2       1 0ZB        -0.3933
     12 H1         24.8864   60.2378   52.5691 H         1 0ZB         0.2218
     13 H2         23.4466   59.0102   53.9413 H         1 0ZB         0.2490
     14 N          28.6190   59.2480   51.6030 N.am      1 0ZB        -0.2619
     15 CA         29.1740   59.0960   50.2690 C.3       1 0ZB         0.1424
     16 C          28.2140   58.2700   49.4040 C.2       1 0ZB         0.2052
     17 O          28.5730   57.8160   48.3120 O.2       1 0ZB        -0.3943
     18 CB         30.5550   58.4370   50.3320 C.3       1 0ZB         0.0406
     19 CG         31.3150   58.5460   49.0250 C.2       1 0ZB         0.0393
     20 OD1        31.8390   59.6400   48.7240 O.co2     1 0ZB        -0.5688
     21 OD2        31.3890   57.5330   48.3020 O.co2     1 0ZB        -0.5688
     22 H3         26.9023   61.3963   53.4227 H         1 0ZB         0.0774
     23 N          26.9940   58.0710   49.9020 N.am      1 0ZB        -0.2736
     24 CB         25.9380   57.3280   49.2210 C.3       1 0ZB         0.0645
     25 CG         25.9320   55.8400   48.9830 C.ar      1 0ZB        -0.0210
     26 CD1        26.7100   54.9850   49.7690 C.ar      1 0ZB        -0.0584
     27 CE1        26.6820   53.5940   49.5770 C.ar      1 0ZB        -0.0685
     28 CD2        25.1160   55.2830   47.9870 C.ar      1 0ZB        -0.0584
     29 CE2        25.0800   53.9040   47.7880 C.ar      1 0ZB        -0.0685
     30 CZ         25.8610   53.0490   48.5820 C.ar      1 0ZB        -0.0687
     31 H4         29.4727   60.8500   53.8840 H         1 0ZB         0.0318
     32 H5         28.7231   59.4988   54.8000 H         1 0ZB         0.0318
     33 H6         29.2667   61.2728   56.3078 H         1 0ZB         0.0298
     34 H7         28.2846   63.5345   56.1082 H         1 0ZB         0.0232
     35 H8         27.5644   63.0740   54.5284 H         1 0ZB         0.0232
     36 H9         29.3496   63.1362   54.7176 H         1 0ZB         0.0232
     37 H10        27.1473   60.0743   56.7216 H         1 0ZB         0.0232
     38 H11        26.2662   61.3241   55.7791 H         1 0ZB         0.0232
     39 H12        27.0939   61.7708   57.3095 H         1 0ZB         0.0232
     40 H13        28.6895   58.4970   52.2595 H         1 0ZB         0.1886
     41 H14        29.2845   60.0930   49.8176 H         1 0ZB         0.0819
     42 H15        30.4261   57.3723   50.5764 H         1 0ZB         0.0478
     43 H16        31.1427   58.9262   51.1227 H         1 0ZB         0.0478
     44 H17        26.7883   58.4561   50.8017 H         1 0ZB         0.1878
     45 H18        25.8589   57.7830   48.2226 H         1 0ZB         0.0683
     46 H19        25.0210   57.5353   49.7921 H         1 0ZB         0.0683
     47 H20        27.3463   55.4031   50.5406 H         1 0ZB         0.0557
     48 H21        27.2924   52.9460   50.1955 H         1 0ZB         0.0599
     49 H22        24.5078   55.9312   47.3664 H         1 0ZB         0.0557
     50 H23        24.4443   53.4885   47.0145 H         1 0ZB         0.0599
     51 H24        25.8287   51.9767   48.4262 H         1 0ZB         0.0559
@<TRIPOS>BOND
     1    1   12 1  
     2    3    1 am 
     3    1    2 1  
     4    2   13 1  
     5    5    3 1  
     6    3    4 2  
     7   10    5 1  
     8    5    6 1  
     9    6    7 1  
    10    7    9 1  
    11    7    8 1  
    12   10   11 2  
    13   16   15 1  
    14   15   18 1  
    15   15   14 1  
    16    5   22 1  
    17   18   19 1  
    18   19   20 ar 
    19   19   21 ar 
    20   16   17 2  
    21    6   31 1  
    22   23   24 1  
    23   24   25 1  
    24   25   28 ar 
    25   25   26 ar 
    26   26   27 ar 
    27   27   30 ar 
    28   29   30 ar 
    29   28   29 ar 
    30   14   10 am 
    31   16   23 am 
    32    6   32 1  
    33    7   33 1  
    34    8   34 1  
    35    8   35 1  
    36    8   36 1  
    37    9   37 1  
    38    9   38 1  
    39    9   39 1  
    40   14   40 1  
    41   15   41 1  
    42   18   42 1  
    43   18   43 1  
    44   23   44 1  
    45   24   45 1  
    46   24   46 1  
    47   26   47 1  
    48   27   48 1  
    49   28   49 1  
    50   29   50 1  
    51   30   51 1  
@<TRIPOS>SUBSTRUCTURE
     1 0ZB         1

