### 
### Created by X-TOOL on Mon Sep 10 21:12:46 2018
### 

@<TRIPOS>MOLECULE
1a8t_ligand
   58    62     1     0     0
SMALL
GAST_HUCK


@<TRIPOS>ATOM
      1 N1         10.4920   33.9750   -1.5560 N.pl3     1 061        -0.1514
      2 N2          9.6690   33.6680   -0.5770 N.2       1 061        -0.0641
      3 N3          8.4590   33.9100   -0.9930 N.2       1 061        -0.1389
      4 N4          8.4650   34.4360   -2.2430 N.2       1 061        -0.2082
      5 C5          9.7920   34.4220   -2.6130 C.2       1 061         0.1847
      6 C6         10.1830   34.9240   -3.9430 C.ar      1 061         0.0456
      7 C7          9.6640   36.1720   -4.3950 C.ar      1 061        -0.0046
      8 C8          9.9590   36.6490   -5.6660 C.ar      1 061        -0.0510
      9 C9         10.7720   35.8980   -6.5070 C.ar      1 061        -0.0587
     10 C10        11.2760   34.6670   -6.0980 C.ar      1 061        -0.0579
     11 C11        10.9840   34.1870   -4.8040 C.ar      1 061        -0.0447
     12 C12         8.7970   36.9280   -3.4570 C.ar      1 061        -0.0207
     13 C13         9.1280   38.2220   -3.0510 C.ar      1 061        -0.0588
     14 C14         8.3400   38.8700   -2.0700 C.ar      1 061        -0.0555
     15 C15         7.2470   38.1860   -1.5280 C.ar      1 061        -0.0102
     16 C16         6.9400   36.8850   -1.9420 C.ar      1 061        -0.0555
     17 C17         7.7450   36.2030   -2.8620 C.ar      1 061        -0.0588
     18 C18         6.2950   38.7460   -0.5040 C.3       1 061         0.1043
     19 N19         6.5650   39.9430    0.2700 N.am      1 061        -0.1703
     20 C20         6.4490   41.1680   -0.2790 C.2       1 061         0.1437
     21 C21         6.1310   41.3730   -1.7290 C.3       1 061         0.0372
     22 C22         5.1110   40.5150   -2.4110 C.3       1 061        -0.0335
     23 C23         5.2210   40.5350   -3.9360 C.3       1 061        -0.0531
     24 C24         4.8280   41.9400   -4.4830 C.3       1 061        -0.0651
     25 N25         6.6440   42.2600    0.4240 N.2       1 061        -0.3152
     26 C26         6.9420   42.2480    1.7170 C.ar      1 061         0.0027
     27 C27         7.0620   43.4360    2.4530 C.ar      1 061        -0.0603
     28 C28         7.3890   43.3710    3.8120 C.ar      1 061        -0.0360
     29 C29         7.5410   42.1300    4.4650 C.ar      1 061         0.0847
     30 O30         7.8420   42.1300    5.8070 O.3       1 061        -0.3372
     31 C31         7.3860   40.9420    3.7410 C.ar      1 061        -0.0214
     32 C32         7.0970   41.0100    2.3750 C.ar      1 061         0.0523
     33 C33         6.8940   39.8000    1.5480 C.2       1 061         0.2369
     34 O34         6.9820   38.7030    2.0640 O.2       1 061        -0.3860
     35 H1         11.5175   33.8863   -1.5184 H         1 061         0.2703
     36 H2          9.5583   37.5995   -5.9993 H         1 061         0.0625
     37 H3         11.0163   36.2757   -7.4932 H         1 061         0.0645
     38 H4         11.8903   34.0795   -6.7708 H         1 061         0.0619
     39 H5         11.3884   33.2350   -4.4796 H         1 061         0.0660
     40 H6          9.9834   38.7275   -3.4845 H         1 061         0.0615
     41 H7          8.5788   39.8763   -1.7452 H         1 061         0.0563
     42 H8          6.0599   36.3948   -1.5417 H         1 061         0.0563
     43 H9          7.5669   35.1620   -3.1063 H         1 061         0.0615
     44 H10         6.1367   37.9425    0.2304 H         1 061         0.0795
     45 H11         5.3557   38.9414   -1.0420 H         1 061         0.0795
     46 H12         7.0736   41.2408   -2.2803 H         1 061         0.0558
     47 H13         5.7883   42.4131   -1.8327 H         1 061         0.0558
     48 H14         4.1098   40.8730   -2.1291 H         1 061         0.0299
     49 H15         5.2405   39.4786   -2.0659 H         1 061         0.0299
     50 H16         4.5449   39.7777   -4.3595 H         1 061         0.0265
     51 H17         6.2565   40.3072   -4.2291 H         1 061         0.0265
     52 H18         4.9107   41.9427   -5.5799 H         1 061         0.0230
     53 H19         5.5037   42.6994   -4.0625 H         1 061         0.0230
     54 H20         3.7921   42.1699   -4.1929 H         1 061         0.0230
     55 H21         6.9030   44.3952    1.9737 H         1 061         0.0535
     56 H22         7.5277   44.2889    4.3718 H         1 061         0.0565
     57 H23         7.9149   41.2339    6.1141 H         1 061         0.2456
     58 H24         7.4888   39.9817    4.2333 H         1 061         0.0563
@<TRIPOS>BOND
     1    1    2 1  
     2    1    5 1  
     3    2    3 2  
     4    3    4 1  
     5    4    5 2  
     6    5    6 1  
     7    6    7 ar 
     8    6   11 ar 
     9    7    8 ar 
    10    7   12 1  
    11    8    9 ar 
    12    9   10 ar 
    13   10   11 ar 
    14   12   13 ar 
    15   12   17 ar 
    16   13   14 ar 
    17   14   15 ar 
    18   15   16 ar 
    19   15   18 1  
    20   16   17 ar 
    21   18   19 1  
    22   19   20 am 
    23   19   33 am 
    24   20   21 1  
    25   20   25 2  
    26   21   22 1  
    27   22   23 1  
    28   23   24 1  
    29   25   26 1  
    30   26   27 ar 
    31   26   32 ar 
    32   27   28 ar 
    33   28   29 ar 
    34   29   30 1  
    35   29   31 ar 
    36   31   32 ar 
    37   32   33 1  
    38   33   34 2  
    39    1   35 1  
    40    8   36 1  
    41    9   37 1  
    42   10   38 1  
    43   11   39 1  
    44   13   40 1  
    45   14   41 1  
    46   16   42 1  
    47   17   43 1  
    48   18   44 1  
    49   18   45 1  
    50   21   46 1  
    51   21   47 1  
    52   22   48 1  
    53   22   49 1  
    54   23   50 1  
    55   23   51 1  
    56   24   52 1  
    57   24   53 1  
    58   24   54 1  
    59   27   55 1  
    60   28   56 1  
    61   30   57 1  
    62   31   58 1  
@<TRIPOS>SUBSTRUCTURE
     1 061         1

