### 
### Created by X-TOOL on Mon Sep 10 21:12:47 2018
### 

@<TRIPOS>MOLECULE
1a94_ligand
  128   128     1     0     0
SMALL
GAST_HUCK


@<TRIPOS>ATOM
      1 N          50.8690   20.6100   27.1570 N.4       1 0Q4         0.2379
      2 CA         51.6100   19.8510   28.2070 C.3       1 0Q4         0.0651
      3 C          53.0860   20.2070   28.1870 C.2       1 0Q4         0.2267
      4 O          53.6660   20.4070   27.1310 O.2       1 0Q4        -0.3907
      5 CB         51.4600   18.3210   28.0200 C.3       1 0Q4         0.0110
      6 CG         50.0880   17.7100   28.3800 C.3       1 0Q4        -0.0125
      7 CD         49.5980   18.0580   29.8260 C.3       1 0Q4         0.0629
      8 NE         48.3250   17.4210   30.1800 N.pl3     1 0Q4        -0.2723
      9 CZ         48.1320   16.1030   30.2180 C.cat     1 0Q4         0.2882
     10 NH1        49.1170   15.2680   29.9350 N.pl3     1 0Q4        -0.2849
     11 NH2        46.9390   15.6140   30.5030 N.pl3     1 0Q4        -0.2849
     12 N          53.6690   20.2890   29.3720 N.am      1 0Q4        -0.2608
     13 CA         55.0580   20.6150   29.5840 C.3       1 0Q4         0.1334
     14 C          55.5940   19.4090   30.3930 C.2       1 0Q4         0.2042
     15 O          55.3680   19.2930   31.6080 O.2       1 0Q4        -0.3944
     16 CB         55.1690   21.9200   30.3950 C.3       1 0Q4        -0.0063
     17 CG1        56.6010   22.4200   30.3940 C.3       1 0Q4        -0.0584
     18 CG2        54.2290   22.9820   29.8400 C.3       1 0Q4        -0.0584
     19 N          56.3130   18.5180   29.7170 N.am      1 0Q4        -0.2637
     20 CA         56.7930   17.3100   30.3630 C.3       1 0Q4         0.1312
     21 C          58.1850   17.2950   30.9450 C.2       1 0Q4         0.2040
     22 O          58.8360   16.2510   30.9810 O.2       1 0Q4        -0.3944
     23 CB         56.5500   16.1270   29.4520 C.3       1 0Q4        -0.0101
     24 CG         55.0840   16.1660   29.0310 C.3       1 0Q4        -0.0425
     25 CD1        54.7950   15.3140   27.8110 C.3       1 0Q4        -0.0625
     26 CD2        54.2320   15.7850   30.2140 C.3       1 0Q4        -0.0625
     27 N          58.6570   18.4620   31.3750 N.am      1 0Q4        -0.2619
     28 CA         59.9500   18.5840   32.0340 C.3       1 0Q4         0.1404
     29 C          59.9260   17.5780   33.2260 C.2       1 0Q4         0.2060
     30 O          58.8900   17.3740   33.8940 O.2       1 0Q4        -0.3942
     31 CB         60.1200   20.0380   32.4960 C.3       1 0Q4         0.0214
     32 CG         61.0300   20.1980   33.6810 C.ar      1 0Q4        -0.0386
     33 CD1        62.3990   20.0230   33.5480 C.ar      1 0Q4        -0.0601
     34 CD2        60.4980   20.4190   34.9480 C.ar      1 0Q4        -0.0601
     35 CE1        63.2270   20.0520   34.6550 C.ar      1 0Q4        -0.0686
     36 CE2        61.3080   20.4500   36.0610 C.ar      1 0Q4        -0.0686
     37 CZ         62.6720   20.2620   35.9190 C.ar      1 0Q4        -0.0687
     38 N          61.0460   16.9280   33.4910 N.am      1 0Q4        -0.2635
     39 CA         61.1040   15.9430   34.5730 C.3       1 0Q4         0.1325
     40 C          62.5210   15.9540   35.1270 C.2       1 0Q4         0.2040
     41 O          63.5140   15.7680   34.4230 O.2       1 0Q4        -0.3944
     42 CB         60.6670   14.5720   34.0260 C.3       1 0Q4        -0.0008
     43 CG         60.8330   13.3810   34.9590 C.3       1 0Q4         0.0044
     44 CD         62.2940   12.9710   35.1210 C.2       1 0Q4         0.0350
     45 OE1        63.0510   13.2100   34.1510 O.co2     1 0Q4        -0.5690
     46 OE2        62.6960   12.4490   36.2020 O.co2     1 0Q4        -0.5690
     47 N          62.6330   16.2310   36.3980 N.am      1 0Q4        -0.2640
     48 CA         63.9490   16.2950   36.9880 C.3       1 0Q4         0.1282
     49 C          64.0660   15.3140   38.1270 C.2       1 0Q4         0.2036
     50 O          63.1280   15.1480   38.9200 O.2       1 0Q4        -0.3944
     51 CB         64.2270   17.7130   37.4750 C.3       1 0Q4        -0.0244
     52 N          65.2230   14.6810   38.2110 N.am      1 0Q4        -0.2637
     53 CA         65.5060   13.7020   39.2450 C.3       1 0Q4         0.1306
     54 C          64.7380   13.8600   40.5620 C.2       1 0Q4         0.1992
     55 O          64.9380   14.8420   41.3310 O.2       1 0Q4        -0.3947
     56 CB         67.0020   13.6810   39.5010 C.3       1 0Q4        -0.0124
     57 CG         67.7940   13.0550   38.3560 C.3       1 0Q4        -0.0491
     58 CD         67.7570   11.5290   38.4250 C.3       1 0Q4        -0.0557
     59 CE         68.9090   10.9520   37.6030 C.3       1 0Q4        -0.0653
     60 N          63.8820   12.9800   40.7800 N.am      1 0Q4        -0.2990
     61 H1         49.8931   20.3596   27.1872 H         1 0Q4         0.2015
     62 H2         51.2460   20.3839   26.2499 H         1 0Q4         0.2015
     63 H3         50.9674   21.5990   27.3248 H         1 0Q4         0.2015
     64 H4         51.1936   20.1260   29.1873 H         1 0Q4         0.1098
     65 H5         52.2181   17.8322   28.6495 H         1 0Q4         0.0347
     66 H6         51.6592   18.0932   26.9625 H         1 0Q4         0.0347
     67 H7         50.1627   16.6160   28.2936 H         1 0Q4         0.0302
     68 H8         49.3431   18.0845   27.6625 H         1 0Q4         0.0302
     69 H9         49.4740   19.1485   29.8989 H         1 0Q4         0.0689
     70 H10        50.3642   17.7273   30.5426 H         1 0Q4         0.0689
     71 H11        47.5292   18.0316   30.4142 H         1 0Q4         0.2642
     72 H12        48.9557   14.2512   29.9678 H         1 0Q4         0.2615
     73 H13        50.0458   15.6342   29.6817 H         1 0Q4         0.2615
     74 H14        46.1610   16.2512   30.7257 H         1 0Q4         0.2615
     75 H15        46.7864   14.5954   30.5026 H         1 0Q4         0.2615
     76 H16        53.1058   20.1121   30.1791 H         1 0Q4         0.1885
     77 H17        55.5947   20.7214   28.6297 H         1 0Q4         0.0802
     78 H18        54.8760   21.7085   31.4339 H         1 0Q4         0.0343
     79 H19        56.6646   23.3511   30.9762 H         1 0Q4         0.0234
     80 H20        56.9217   22.6118   29.3594 H         1 0Q4         0.0234
     81 H21        57.2552   21.6598   30.8457 H         1 0Q4         0.0234
     82 H22        53.1976   22.5998   29.8495 H         1 0Q4         0.0234
     83 H23        54.5201   23.2260   28.8077 H         1 0Q4         0.0234
     84 H24        54.2903   23.8872   30.4620 H         1 0Q4         0.0234
     85 H25        56.5253   18.6818   28.7536 H         1 0Q4         0.1883
     86 H26        56.1320   17.1722   31.2314 H         1 0Q4         0.0800
     87 H27        56.7619   15.1902   29.9882 H         1 0Q4         0.0315
     88 H28        57.1973   16.1965   28.5654 H         1 0Q4         0.0315
     89 H29        54.8409   17.2045   28.7619 H         1 0Q4         0.0298
     90 H30        53.7264   15.3843   27.5595 H         1 0Q4         0.0232
     91 H31        55.0530   14.2665   28.0258 H         1 0Q4         0.0232
     92 H32        55.3958   15.6730   26.9624 H         1 0Q4         0.0232
     93 H33        54.4810   16.4314   31.0685 H         1 0Q4         0.0232
     94 H34        54.4231   14.7351   30.4806 H         1 0Q4         0.0232
     95 H35        53.1699   15.9105   29.9566 H         1 0Q4         0.0232
     96 H36        58.1044   19.2846   31.2410 H         1 0Q4         0.1885
     97 H37        60.7645   18.3230   31.3423 H         1 0Q4         0.0823
     98 H38        59.1295   20.4343   32.7640 H         1 0Q4         0.0474
     99 H39        60.5342   20.6208   31.6601 H         1 0Q4         0.0474
    100 H40        62.8252   19.8615   32.5645 H         1 0Q4         0.0557
    101 H41        59.4303   20.5689   35.0602 H         1 0Q4         0.0557
    102 H42        64.2962   19.9131   34.5427 H         1 0Q4         0.0599
    103 H43        60.8802   20.6206   37.0423 H         1 0Q4         0.0599
    104 H44        63.3125   20.2779   36.7934 H         1 0Q4         0.0559
    105 H45        61.8640   17.1112   32.9457 H         1 0Q4         0.1883
    106 H46        60.4098   16.2342   35.3750 H         1 0Q4         0.0801
    107 H47        61.2573   14.3707   33.1199 H         1 0Q4         0.0330
    108 H48        59.6016   14.6425   33.7614 H         1 0Q4         0.0330
    109 H49        60.2701   12.5295   34.5491 H         1 0Q4         0.0433
    110 H50        60.4286   13.6465   35.9469 H         1 0Q4         0.0433
    111 H51        61.8189   16.3964   36.9547 H         1 0Q4         0.1883
    112 H52        64.6928   16.0325   36.2213 H         1 0Q4         0.0797
    113 H53        65.2305   17.7565   37.9235 H         1 0Q4         0.0277
    114 H54        63.4764   17.9960   38.2277 H         1 0Q4         0.0277
    115 H55        64.1748   18.4094   36.6252 H         1 0Q4         0.0277
    116 H56        65.9317   14.8844   37.5355 H         1 0Q4         0.1883
    117 H57        65.2205   12.7213   38.8368 H         1 0Q4         0.0800
    118 H58        67.1929   13.1023   40.4168 H         1 0Q4         0.0312
    119 H59        67.3481   14.7155   39.6421 H         1 0Q4         0.0312
    120 H60        68.8395   13.3912   38.4176 H         1 0Q4         0.0267
    121 H61        67.3596   13.3811   37.3995 H         1 0Q4         0.0267
    122 H62        66.8006   11.1670   38.0198 H         1 0Q4         0.0263
    123 H63        67.8569   11.2071   39.4721 H         1 0Q4         0.0263
    124 H64        68.8812    9.8535   37.6535 H         1 0Q4         0.0230
    125 H65        69.8656   11.3136   38.0081 H         1 0Q4         0.0230
    126 H66        68.8093   11.2735   36.5558 H         1 0Q4         0.0230
    127 H67        63.3366   13.0096   41.6176 H         1 0Q4         0.1815
    128 H68        63.7409   12.2446   40.1172 H         1 0Q4         0.1815
@<TRIPOS>BOND
     1    3    2 1  
     2    2    5 1  
     3    2    1 1  
     4    5    6 1  
     5    6    7 1  
     6    7    8 1  
     7    8    9 ar 
     8    9   10 ar 
     9    9   11 ar 
    10    3    4 2  
    11   14   13 1  
    12   13   16 1  
    13   13   12 1  
    14   16   17 1  
    15   16   18 1  
    16   14   15 2  
    17   21   20 1  
    18   20   23 1  
    19   20   19 1  
    20   23   24 1  
    21   24   26 1  
    22   24   25 1  
    23   21   22 2  
    24   29   28 1  
    25   28   31 1  
    26   28   27 1  
    27   31   32 1  
    28   32   34 ar 
    29   32   33 ar 
    30   33   35 ar 
    31   35   37 ar 
    32   36   37 ar 
    33   34   36 ar 
    34   29   30 2  
    35   40   39 1  
    36   39   42 1  
    37   39   38 1  
    38   42   43 1  
    39   43   44 1  
    40   44   45 ar 
    41   44   46 ar 
    42   40   41 2  
    43   49   48 1  
    44   48   51 1  
    45   48   47 1  
    46   49   50 2  
    47   52   53 1  
    48   53   56 1  
    49   53   54 1  
    50   54   55 2  
    51   56   57 1  
    52   57   58 1  
    53   58   59 1  
    54   12    3 am 
    55   19   14 am 
    56   27   21 am 
    57   38   29 am 
    58   47   40 am 
    59   49   52 am 
    60   54   60 am 
    61    1   61 1  
    62    1   62 1  
    63    1   63 1  
    64    2   64 1  
    65    5   65 1  
    66    5   66 1  
    67    6   67 1  
    68    6   68 1  
    69    7   69 1  
    70    7   70 1  
    71    8   71 1  
    72   10   72 1  
    73   10   73 1  
    74   11   74 1  
    75   11   75 1  
    76   12   76 1  
    77   13   77 1  
    78   16   78 1  
    79   17   79 1  
    80   17   80 1  
    81   17   81 1  
    82   18   82 1  
    83   18   83 1  
    84   18   84 1  
    85   19   85 1  
    86   20   86 1  
    87   23   87 1  
    88   23   88 1  
    89   24   89 1  
    90   25   90 1  
    91   25   91 1  
    92   25   92 1  
    93   26   93 1  
    94   26   94 1  
    95   26   95 1  
    96   27   96 1  
    97   28   97 1  
    98   31   98 1  
    99   31   99 1  
   100   33  100 1  
   101   34  101 1  
   102   35  102 1  
   103   36  103 1  
   104   37  104 1  
   105   38  105 1  
   106   39  106 1  
   107   42  107 1  
   108   42  108 1  
   109   43  109 1  
   110   43  110 1  
   111   47  111 1  
   112   48  112 1  
   113   51  113 1  
   114   51  114 1  
   115   51  115 1  
   116   52  116 1  
   117   53  117 1  
   118   56  118 1  
   119   56  119 1  
   120   57  120 1  
   121   57  121 1  
   122   58  122 1  
   123   58  123 1  
   124   59  124 1  
   125   59  125 1  
   126   59  126 1  
   127   60  127 1  
   128   60  128 1  
@<TRIPOS>SUBSTRUCTURE
     1 0Q4         1

