### 
### Created by X-TOOL on Mon Sep 10 21:12:46 2018
### 

@<TRIPOS>MOLECULE
1a99_ligand
   20    19     1     0     0
SMALL
GAST_HUCK


@<TRIPOS>ATOM
      1 N2        185.9370    8.2100   65.8030 N.4       1 PUT         0.2185
      2 C4        185.0470    7.2500   65.0860 C.3       1 PUT        -0.0352
      3 C3        184.0970    7.9880   64.1260 C.3       1 PUT        -0.0078
      4 C2        183.4900    7.0810   63.0700 C.3       1 PUT        -0.0078
      5 C1        182.5140    7.8100   62.1680 C.3       1 PUT        -0.0352
      6 N1        182.2700    7.0450   60.9210 N.4       1 PUT         0.2185
      7 H1        186.5478    7.7024   66.4238 H         1 PUT         0.1994
      8 H2        185.3752    8.8544   66.3370 H         1 PUT         0.1994
      9 H3        186.4891    8.7214   65.1324 H         1 PUT         0.1994
     10 H4        184.4509    6.6927   65.8237 H         1 PUT         0.0813
     11 H5        185.6665    6.5476   64.5091 H         1 PUT         0.0813
     12 H6        184.6614    8.7850   63.6197 H         1 PUT         0.0319
     13 H7        183.2816    8.4334   64.7148 H         1 PUT         0.0319
     14 H8        182.9587    6.2600   63.5736 H         1 PUT         0.0319
     15 H9        184.3007    6.6683   62.4515 H         1 PUT         0.0319
     16 H10       182.9295    8.7953   61.9101 H         1 PUT         0.0813
     17 H11       181.5610    7.9421   62.7013 H         1 PUT         0.0813
     18 H12       181.6193    7.5493   60.3393 H         1 PUT         0.1994
     19 H13       181.8854    6.1420   61.1506 H         1 PUT         0.1994
     20 H14       183.1394    6.9238   60.4255 H         1 PUT         0.1994
@<TRIPOS>BOND
     1    1    2 1  
     2    2    3 1  
     3    3    4 1  
     4    4    5 1  
     5    5    6 1  
     6    1    7 1  
     7    1    8 1  
     8    1    9 1  
     9    2   10 1  
    10    2   11 1  
    11    3   12 1  
    12    3   13 1  
    13    4   14 1  
    14    4   15 1  
    15    5   16 1  
    16    5   17 1  
    17    6   18 1  
    18    6   19 1  
    19    6   20 1  
@<TRIPOS>SUBSTRUCTURE
     1 PUT         1

