### 
### Created by X-TOOL on Mon Sep 10 21:12:46 2018
### 

@<TRIPOS>MOLECULE
1a9m_ligand
   95    95     1     0     0
SMALL
GAST_HUCK


@<TRIPOS>ATOM
      1 C1         45.5100   23.0020   66.2580 C.3       1 U0E         0.0257
      2 C2         44.7100   22.2760   65.6330 C.2       1 U0E         0.1732
      3 C3         44.3590   19.9760   64.7470 C.3       1 U0E         0.0682
      4 C4         45.3320   19.2840   63.8240 C.3       1 U0E        -0.0246
      5 C5         45.9590   19.9850   62.6470 C.3       1 U0E        -0.0389
      6 C6         45.1630   21.1900   62.1830 C.3       1 U0E        -0.0501
      7 C7         45.7320   21.7660   60.9070 C.3       1 U0E        -0.0528
      8 C8         47.2140   22.1150   61.0830 C.3       1 U0E        -0.0530
      9 C9         48.0570   20.9850   61.7110 C.3       1 U0E        -0.0528
     10 C10        47.3850   20.4040   62.9280 C.3       1 U0E        -0.0501
     11 C11        43.6380   18.8840   65.6080 C.3       1 U0E         0.0804
     12 C12        42.7960   19.5050   66.7060 C.3       1 U0E        -0.0047
     13 C13        41.4600   18.8010   66.8660 C.3       1 U0E         0.0535
     14 C14        40.5360   19.6130   67.8360 C.3       1 U0E        -0.0269
     15 C15        39.9940   20.8780   67.1990 C.3       1 U0E        -0.0603
     16 C16        39.4250   18.7550   68.3890 C.3       1 U0E        -0.0603
     17 C17        40.8390   18.5800   65.4800 C.2       1 U0E         0.1816
     18 C18        39.3800   17.1150   64.2650 C.3       1 U0E         0.1330
     19 C19        39.9620   16.7890   62.8680 C.3       1 U0E         0.0045
     20 C20        40.0380   15.3260   62.4810 C.3       1 U0E         0.0412
     21 C21        38.7290   14.7960   61.9710 C.2       1 U0E         0.1737
     22 C22        38.3970   16.0710   64.7570 C.2       1 U0E         0.2040
     23 C23        36.0780   15.3880   64.7620 C.3       1 U0E         0.1307
     24 C24        35.1670   15.2450   63.5670 C.2       1 U0E         0.1992
     25 C25        35.3380   16.0590   65.9140 C.3       1 U0E        -0.0092
     26 C26        35.9920   15.8580   67.2590 C.3       1 U0E        -0.0156
     27 C27        35.9500   17.1280   68.0770 C.3       1 U0E         0.0627
     28 C28        34.3030   17.2140   69.9120 C.cat     1 U0E         0.2882
     29 N1         45.0620   20.9790   65.5660 N.am      1 U0E        -0.2816
     30 N2         40.4350   17.3410   65.2340 N.am      1 U0E        -0.2652
     31 N3         38.1560   15.4730   60.9940 N.am      1 U0E        -0.3009
     32 N4         37.1640   16.2210   64.3060 N.am      1 U0E        -0.2637
     33 N5         34.6060   14.0510   63.5010 N.am      1 U0E        -0.2990
     34 N6         35.5030   16.8760   69.4420 N.pl3     1 U0E        -0.2723
     35 N7         33.5530   18.1050   69.2620 N.pl3     1 U0E        -0.2849
     36 N8         33.8540   16.6660   71.0360 N.pl3     1 U0E        -0.2849
     37 O1         43.6700   22.7450   65.1250 O.2       1 U0E        -0.3974
     38 O2         44.5850   18.0080   66.1960 O.3       1 U0E        -0.3894
     39 O3         40.7610   19.4940   64.6310 O.2       1 U0E        -0.3966
     40 O4         38.2180   13.8060   62.4730 O.2       1 U0E        -0.3973
     41 O5         38.7320   15.1970   65.5570 O.2       1 U0E        -0.3944
     42 O6         34.9930   16.1380   62.7260 O.2       1 U0E        -0.3947
     43 H1         46.3518   22.3933   66.6198 H         1 U0E         0.0467
     44 H2         44.9955   23.4620   67.1145 H         1 U0E         0.0467
     45 H3         45.8879   23.7905   65.5906 H         1 U0E         0.0467
     46 H4         43.6025   20.4983   64.1430 H         1 U0E         0.0582
     47 H5         44.8000   18.4127   63.4145 H         1 U0E         0.0291
     48 H6         46.1644   18.9415   64.4563 H         1 U0E         0.0291
     49 H7         45.9802   19.2631   61.8173 H         1 U0E         0.0302
     50 H8         45.1900   21.9608   62.9673 H         1 U0E         0.0268
     51 H9         44.1214   20.8844   62.0049 H         1 U0E         0.0268
     52 H10        45.1755   22.6773   60.6427 H         1 U0E         0.0265
     53 H11        45.6289   21.0262   60.0995 H         1 U0E         0.0265
     54 H12        47.2857   23.0007   61.7314 H         1 U0E         0.0265
     55 H13        47.6335   22.3499   60.0936 H         1 U0E         0.0265
     56 H14        49.0368   21.3906   62.0035 H         1 U0E         0.0265
     57 H15        48.1976   20.1880   60.9660 H         1 U0E         0.0265
     58 H16        47.9541   19.5234   63.2606 H         1 U0E         0.0268
     59 H17        47.3812   21.1610   63.7260 H         1 U0E         0.0268
     60 H18        42.9791   18.3023   64.9466 H         1 U0E         0.0618
     61 H19        42.6134   20.5612   66.4590 H         1 U0E         0.0318
     62 H20        43.3473   19.4405   67.6557 H         1 U0E         0.0318
     63 H21        41.6363   17.8143   67.3191 H         1 U0E         0.0541
     64 H22        41.1597   19.9243   68.6869 H         1 U0E         0.0322
     65 H23        39.3544   21.4070   67.9209 H         1 U0E         0.0234
     66 H24        39.4032   20.6162   66.3088 H         1 U0E         0.0234
     67 H25        40.8311   21.5284   66.9053 H         1 U0E         0.0234
     68 H26        39.8527   17.8486   68.8422 H         1 U0E         0.0234
     69 H27        38.7416   18.4706   67.5753 H         1 U0E         0.0234
     70 H28        38.8707   19.3202   69.1527 H         1 U0E         0.0234
     71 H29        38.8215   18.0575   64.1659 H         1 U0E         0.0801
     72 H30        40.9832   17.1961   62.8302 H         1 U0E         0.0337
     73 H31        39.3363   17.2983   62.1203 H         1 U0E         0.0337
     74 H32        40.3341   14.7424   63.3651 H         1 U0E         0.0504
     75 H33        40.7967   15.2087   61.6932 H         1 U0E         0.0504
     76 H34        36.4519   14.4055   65.0857 H         1 U0E         0.0800
     77 H35        34.3194   15.6462   65.9588 H         1 U0E         0.0313
     78 H36        35.2874   17.1390   65.7112 H         1 U0E         0.0313
     79 H37        37.0406   15.5617   67.1084 H         1 U0E         0.0301
     80 H38        35.4606   15.0627   67.8021 H         1 U0E         0.0301
     81 H39        35.2568   17.8365   67.6000 H         1 U0E         0.0689
     82 H40        36.9586   17.5660   68.1074 H         1 U0E         0.0689
     83 H41        45.8486   20.6775   66.1049 H         1 U0E         0.1855
     84 H42        40.8542   16.5694   65.7125 H         1 U0E         0.1883
     85 H43        37.2829   15.1642   60.6168 H         1 U0E         0.1814
     86 H44        38.5949   16.2949   60.6308 H         1 U0E         0.1814
     87 H45        36.9782   16.9329   63.6287 H         1 U0E         0.1883
     88 H46        33.9800   13.8334   62.7521 H         1 U0E         0.1815
     89 H47        34.8073   13.3647   64.1999 H         1 U0E         0.1815
     90 H48        36.1572   16.4064   70.0842 H         1 U0E         0.2642
     91 H49        32.6259   18.3633   69.6290 H         1 U0E         0.2615
     92 H50        33.9009   18.5348   68.3930 H         1 U0E         0.2615
     93 H51        34.4313   15.9777   71.5398 H         1 U0E         0.2615
     94 H52        32.9286   16.9295   71.4036 H         1 U0E         0.2615
     95 H53        45.0865   17.5802   65.5119 H         1 U0E         0.2099
@<TRIPOS>BOND
     1    1    2 1  
     2    2   37 2  
     3    2   29 am 
     4   29    3 1  
     5    3   11 1  
     6    3    4 1  
     7    4    5 1  
     8    5   10 1  
     9    5    6 1  
    10    6    7 1  
    11    7    8 1  
    12    8    9 1  
    13    9   10 1  
    14   11   38 1  
    15   11   12 1  
    16   12   13 1  
    17   13   17 1  
    18   13   14 1  
    19   14   16 1  
    20   14   15 1  
    21   17   39 2  
    22   17   30 am 
    23   30   18 1  
    24   18   22 1  
    25   18   19 1  
    26   19   20 1  
    27   20   21 1  
    28   21   40 2  
    29   21   31 am 
    30   22   41 2  
    31   22   32 am 
    32   32   23 1  
    33   23   25 1  
    34   23   24 1  
    35   24   42 2  
    36   24   33 am 
    37   25   26 1  
    38   26   27 1  
    39   27   34 1  
    40   34   28 ar 
    41   28   35 ar 
    42   28   36 ar 
    43    1   43 1  
    44    1   44 1  
    45    1   45 1  
    46    3   46 1  
    47    4   47 1  
    48    4   48 1  
    49    5   49 1  
    50    6   50 1  
    51    6   51 1  
    52    7   52 1  
    53    7   53 1  
    54    8   54 1  
    55    8   55 1  
    56    9   56 1  
    57    9   57 1  
    58   10   58 1  
    59   10   59 1  
    60   11   60 1  
    61   12   61 1  
    62   12   62 1  
    63   13   63 1  
    64   14   64 1  
    65   15   65 1  
    66   15   66 1  
    67   15   67 1  
    68   16   68 1  
    69   16   69 1  
    70   16   70 1  
    71   18   71 1  
    72   19   72 1  
    73   19   73 1  
    74   20   74 1  
    75   20   75 1  
    76   23   76 1  
    77   25   77 1  
    78   25   78 1  
    79   26   79 1  
    80   26   80 1  
    81   27   81 1  
    82   27   82 1  
    83   29   83 1  
    84   30   84 1  
    85   31   85 1  
    86   31   86 1  
    87   32   87 1  
    88   33   88 1  
    89   33   89 1  
    90   34   90 1  
    91   35   91 1  
    92   35   92 1  
    93   36   93 1  
    94   36   94 1  
    95   38   95 1  
@<TRIPOS>SUBSTRUCTURE
     1 U0E         1

