### 
### Created by X-TOOL on Mon Sep 10 21:12:47 2018
### 

@<TRIPOS>MOLECULE
1a9u_ligand
   43    46     1     0     0
SMALL
GAST_HUCK


@<TRIPOS>ATOM
      1 O2         -0.9400   21.5700   27.8010 O.2       1 SB2        -0.2522
      2 C1          1.7670   22.3460   28.2870 C.3       1 SB2         0.0165
      3 S1          0.5880   21.2640   27.4030 S.o       1 SB2         0.0516
      4 CA1         0.4630   17.2150   27.7730 C.ar      1 SB2        -0.0459
      5 CA2         0.0750   18.5630   27.5900 C.ar      1 SB2        -0.0431
      6 CA3         1.0690   19.5790   27.6130 C.ar      1 SB2         0.0404
      7 CA4         2.4440   19.2780   27.8020 C.ar      1 SB2        -0.0431
      8 CA5         2.8260   17.9330   27.9810 C.ar      1 SB2        -0.0459
      9 CA6         1.8520   16.8530   27.9720 C.ar      1 SB2         0.0299
     10 NB1         0.4690    9.3540   28.9050 N.ar      1 SB2        -0.3038
     11 CB2         0.0330   10.1300   27.8840 C.ar      1 SB2         0.0060
     12 CB3         0.5600   11.4490   27.6850 C.ar      1 SB2        -0.0288
     13 CB4         1.5720   11.9530   28.5980 C.ar      1 SB2         0.0230
     14 CB5         1.9890   11.0570   29.6830 C.ar      1 SB2        -0.0288
     15 CB6         1.4080    9.7650   29.7890 C.ar      1 SB2         0.0060
     16 NC1         1.3470   14.4320   28.2060 N.pl3     1 SB2        -0.2489
     17 CC2         2.2550   15.4900   28.1830 C.2       1 SB2         0.1420
     18 NC3         3.5760   15.1690   28.3810 N.2       1 SB2        -0.3040
     19 CC4         3.5530   13.7840   28.5630 C.2       1 SB2         0.0428
     20 CC5         2.1500   13.3030   28.4790 C.2       1 SB2         0.1015
     21 CD1         5.3380   13.3370   30.1690 C.ar      1 SB2        -0.0593
     22 CD2         6.5350   12.7070   30.5430 C.ar      1 SB2        -0.0302
     23 CD3         7.1890   11.8340   29.6380 C.ar      1 SB2         0.1302
     24 CD4         6.6360   11.5840   28.3390 C.ar      1 SB2        -0.0302
     25 CD5         5.4270   12.2190   27.9600 C.ar      1 SB2        -0.0593
     26 CD6         4.7550   13.1100   28.8800 C.ar      1 SB2        -0.0227
     27 FD3         8.3550   11.2330   30.0350 F         1 SB2        -0.1850
     28 H1          2.7937   22.0971   27.9805 H         1 SB2         0.0369
     29 H2          1.6613   22.1948   29.3714 H         1 SB2         0.0369
     30 H3          1.5555   23.3971   28.0410 H         1 SB2         0.0369
     31 H4         -0.2930   16.4382   27.7642 H         1 SB2         0.0646
     32 H5         -0.9670   18.8180   27.4342 H         1 SB2         0.0634
     33 H6          3.1861   20.0681   27.8085 H         1 SB2         0.0634
     34 H7          3.8736   17.6974   28.1293 H         1 SB2         0.0646
     35 H8         -0.7243    9.7491   27.2083 H         1 SB2         0.0806
     36 H9          0.2077   12.0624   26.8636 H         1 SB2         0.0691
     37 H10         2.7360   11.3792   30.3994 H         1 SB2         0.0691
     38 H11         1.7202    9.1008   30.5868 H         1 SB2         0.0806
     39 H12         0.3282   14.4661   28.0583 H         1 SB2         0.2374
     40 H13         4.8467   14.0059   30.8663 H         1 SB2         0.0588
     41 H14         6.9593   12.8880   31.5239 H         1 SB2         0.0599
     42 H15         7.1392   10.9138   27.6514 H         1 SB2         0.0599
     43 H16         5.0050   12.0365   26.9783 H         1 SB2         0.0588
@<TRIPOS>BOND
     1    1    3 2  
     2    3    2 1  
     3    3    6 1  
     4    6    7 ar 
     5    6    5 ar 
     6    5    4 ar 
     7    4    9 ar 
     8    9   17 1  
     9    9    8 ar 
    10    8    7 ar 
    11   17   16 1  
    12   17   18 2  
    13   18   19 1  
    14   19   26 1  
    15   19   20 2  
    16   20   16 1  
    17   20   13 1  
    18   13   14 ar 
    19   13   12 ar 
    20   12   11 ar 
    21   11   10 ar 
    22   10   15 ar 
    23   15   14 ar 
    24   26   25 ar 
    25   26   21 ar 
    26   21   22 ar 
    27   22   23 ar 
    28   23   27 1  
    29   23   24 ar 
    30   24   25 ar 
    31    2   28 1  
    32    2   29 1  
    33    2   30 1  
    34    4   31 1  
    35    5   32 1  
    36    7   33 1  
    37    8   34 1  
    38   11   35 1  
    39   12   36 1  
    40   14   37 1  
    41   15   38 1  
    42   16   39 1  
    43   21   40 1  
    44   22   41 1  
    45   24   42 1  
    46   25   43 1  
@<TRIPOS>SUBSTRUCTURE
     1 SB2         1

