### 
### Created by X-TOOL on Mon Sep 10 21:12:45 2018
### 

@<TRIPOS>MOLECULE
1aaq_ligand
   89    89     1     0     0
SMALL
GAST_HUCK


@<TRIPOS>ATOM
      1 CB1        -4.8320   18.1790   -4.8280 C.3       1 PSI        -0.0040
      2 C1         -5.8830   17.4740   -5.6800 C.3       1 PSI         0.0621
      3 N4         -5.7410   17.9380   -7.0390 N.4       1 PSI         0.2377
      4 C2         -7.2840   17.7850   -5.1510 C.2       1 PSI         0.2264
      5 O3         -7.8780   18.7950   -5.5030 O.2       1 PSI        -0.3907
      6 N12        -7.7640   16.9320   -4.2320 N.am      1 PSI        -0.2613
      7 CA1        -9.0680   17.1150   -3.5730 C.3       1 PSI         0.1282
      8 CB3       -10.0880   16.1150   -4.1410 C.3       1 PSI        -0.0244
      9 C15        -8.8180   16.8680   -2.0810 C.2       1 PSI         0.2018
     10 O16        -8.4350   15.7610   -1.7290 O.2       1 PSI        -0.3945
     11 N22        -8.9820   17.9020   -1.2370 N.am      1 PSI        -0.2775
     12 CA2        -8.6630   17.8220    0.2180 C.3       1 PSI         0.0775
     13 CB2        -7.6860   18.9390    0.6230 C.3       1 PSI         0.0064
     14 CG2        -6.3150   18.8260   -0.0240 C.ar      1 PSI        -0.0408
     15 CD1        -5.9580   19.6050   -1.1370 C.ar      1 PSI        -0.0603
     16 CD2        -5.3680   17.9530    0.5460 C.ar      1 PSI        -0.0603
     17 CE1        -4.6690   19.4940   -1.6820 C.ar      1 PSI        -0.0686
     18 CE2        -4.0860   17.8370   -0.0040 C.ar      1 PSI        -0.0686
     19 CZ3        -3.7290   18.6210   -1.1100 C.ar      1 PSI        -0.0687
     20 C31        -9.9260   17.8710    1.1670 C.3       1 PSI         0.0819
     21 O32       -10.8640   19.0150    1.0930 O.3       1 PSI        -0.3892
     22 C44       -10.7740   16.6120    0.9150 C.3       1 PSI        -0.0076
     23 CA4       -11.8840   16.4140    1.9720 C.3       1 PSI         0.0398
     24 C46       -11.3700   15.7810    3.2710 C.2       1 PSI         0.1783
     25 O47       -10.7800   14.7100    3.1960 O.2       1 PSI        -0.3969
     26 N52       -11.6290   16.3670    4.4580 N.am      1 PSI        -0.2654
     27 CA5       -11.2800   15.6530    5.7110 C.3       1 PSI         0.1332
     28 CB5       -10.4320   16.5190    6.6690 C.3       1 PSI        -0.0063
     29 CG6        -9.9680   15.7260    7.9080 C.3       1 PSI        -0.0584
     30 CG5        -9.1670   17.0370    5.9540 C.3       1 PSI        -0.0584
     31 C57       -12.5960   15.1310    6.3280 C.2       1 PSI         0.2042
     32 O58       -13.5770   15.8440    6.4930 O.2       1 PSI        -0.3944
     33 N68       -12.5390   13.8420    6.6570 N.am      1 PSI        -0.2621
     34 CA6       -13.5190   12.9170    7.2560 C.3       1 PSI         0.1445
     35 CB7       -14.1680   12.0520    6.1210 C.3       1 PSI        -0.0049
     36 CG8       -15.2790   11.0900    6.6380 C.3       1 PSI        -0.0583
     37 CG7       -14.8520   12.9270    5.0450 C.3       1 PSI        -0.0583
     38 C73       -12.8290   12.0770    8.4190 C.2       1 PSI         0.2596
     39 OT7       -13.0000   12.6640    9.7100 O.3       1 PSI        -0.2784
     40 OXT       -11.5110   11.4360    8.2750 O.2       1 PSI        -0.3678
     41 C76       -13.0560   11.6970   10.7740 C.3       1 PSI         0.0658
     42 H1         -4.9193   17.8417   -3.7846 H         1 PSI         0.0310
     43 H2         -4.9901   19.2665   -4.8762 H         1 PSI         0.0310
     44 H3         -3.8288   17.9371   -5.2087 H         1 PSI         0.0310
     45 H4         -5.7181   16.3870   -5.6440 H         1 PSI         0.1095
     46 H5         -6.4269   17.4847   -7.6222 H         1 PSI         0.2015
     47 H6         -4.8164   17.7176   -7.3745 H         1 PSI         0.2015
     48 H7         -5.8806   18.9358   -7.0697 H         1 PSI         0.2015
     49 H8         -7.2110   16.1366   -3.9839 H         1 PSI         0.1884
     50 H9         -9.4368   18.1393   -3.7304 H         1 PSI         0.0797
     51 H10       -11.0585   16.2587   -3.6435 H         1 PSI         0.0277
     52 H11        -9.7334   15.0889   -3.9637 H         1 PSI         0.0277
     53 H12       -10.2021   16.2818   -5.2223 H         1 PSI         0.0277
     54 H13        -9.3340   18.7641   -1.6015 H         1 PSI         0.1857
     55 H14        -8.1648   16.8557    0.3856 H         1 PSI         0.0604
     56 H15        -7.5569   18.9065    1.7149 H         1 PSI         0.0449
     57 H16        -8.1261   19.9049    0.3344 H         1 PSI         0.0449
     58 H17        -6.6757   20.2899   -1.5738 H         1 PSI         0.0557
     59 H18        -5.6341   17.3662    1.4177 H         1 PSI         0.0557
     60 H19        -4.3976   20.0853   -2.5491 H         1 PSI         0.0599
     61 H20        -3.3715   17.1431    0.4239 H         1 PSI         0.0599
     62 H21        -2.7291   18.5536   -1.5231 H         1 PSI         0.0559
     63 H22        -9.5393   17.8444    2.1964 H         1 PSI         0.0619
     64 H23       -10.3973   19.8189    1.2891 H         1 PSI         0.2099
     65 H24       -10.1121   15.7336    0.9322 H         1 PSI         0.0315
     66 H25       -11.2440   16.6977   -0.0758 H         1 PSI         0.0315
     67 H26       -12.6600   15.7604    1.5470 H         1 PSI         0.0503
     68 H27       -12.3208   17.3953    2.2094 H         1 PSI         0.0503
     69 H28       -12.0516   17.2727    4.4931 H         1 PSI         0.1883
     70 H29       -10.6655   14.7800    5.4458 H         1 PSI         0.0802
     71 H30       -11.0415   17.3739    6.9970 H         1 PSI         0.0343
     72 H31        -9.3698   16.3803    8.5592 H         1 PSI         0.0234
     73 H32        -9.3565   14.8697    7.5874 H         1 PSI         0.0234
     74 H33       -10.8467   15.3626    8.4610 H         1 PSI         0.0234
     75 H34        -9.4589   17.6099    5.0615 H         1 PSI         0.0234
     76 H35        -8.5405   16.1843    5.6535 H         1 PSI         0.0234
     77 H36        -8.5996   17.6863    6.6370 H         1 PSI         0.0234
     78 H37       -11.6561   13.4166    6.4584 H         1 PSI         0.1885
     79 H38       -14.3216   13.5124    7.7156 H         1 PSI         0.0819
     80 H39       -13.3687   11.4586    5.6530 H         1 PSI         0.0344
     81 H40       -15.6893   10.5164    5.7938 H         1 PSI         0.0235
     82 H41       -16.0824   11.6764    7.1078 H         1 PSI         0.0235
     83 H42       -14.8498   10.3978    7.3774 H         1 PSI         0.0235
     84 H43       -14.1212   13.6374    4.6312 H         1 PSI         0.0235
     85 H44       -15.6860   13.4820    5.4994 H         1 PSI         0.0235
     86 H45       -15.2354   12.2841    4.2389 H         1 PSI         0.0235
     87 H46       -13.1881   12.2162   11.7347 H         1 PSI         0.0577
     88 H47       -12.1197   11.1200   10.7948 H         1 PSI         0.0577
     89 H48       -13.9030   11.0156   10.6060 H         1 PSI         0.0577
@<TRIPOS>BOND
     1    1    2 1  
     2    2    3 1  
     3    2    4 1  
     4    4    5 2  
     5    4    6 am 
     6    6    7 1  
     7    7    8 1  
     8    7    9 1  
     9    9   10 2  
    10    9   11 am 
    11   11   12 1  
    12   12   13 1  
    13   12   20 1  
    14   13   14 1  
    15   14   15 ar 
    16   14   16 ar 
    17   15   17 ar 
    18   16   18 ar 
    19   17   19 ar 
    20   18   19 ar 
    21   20   21 1  
    22   20   22 1  
    23   22   23 1  
    24   23   24 1  
    25   24   25 2  
    26   24   26 am 
    27   26   27 1  
    28   27   28 1  
    29   27   31 1  
    30   28   29 1  
    31   28   30 1  
    32   31   32 2  
    33   31   33 am 
    34   33   34 1  
    35   34   35 1  
    36   34   38 1  
    37   35   36 1  
    38   35   37 1  
    39   38   39 1  
    40   38   40 2  
    41   39   41 1  
    42    1   42 1  
    43    1   43 1  
    44    1   44 1  
    45    2   45 1  
    46    3   46 1  
    47    3   47 1  
    48    3   48 1  
    49    6   49 1  
    50    7   50 1  
    51    8   51 1  
    52    8   52 1  
    53    8   53 1  
    54   11   54 1  
    55   12   55 1  
    56   13   56 1  
    57   13   57 1  
    58   15   58 1  
    59   16   59 1  
    60   17   60 1  
    61   18   61 1  
    62   19   62 1  
    63   20   63 1  
    64   21   64 1  
    65   22   65 1  
    66   22   66 1  
    67   23   67 1  
    68   23   68 1  
    69   26   69 1  
    70   27   70 1  
    71   28   71 1  
    72   29   72 1  
    73   29   73 1  
    74   29   74 1  
    75   30   75 1  
    76   30   76 1  
    77   30   77 1  
    78   33   78 1  
    79   34   79 1  
    80   35   80 1  
    81   36   81 1  
    82   36   82 1  
    83   36   83 1  
    84   37   84 1  
    85   37   85 1  
    86   37   86 1  
    87   41   87 1  
    88   41   88 1  
    89   41   89 1  
@<TRIPOS>SUBSTRUCTURE
     1 PSI         1

