### 
### Created by X-TOOL on Mon Sep 10 21:12:44 2018
### 

@<TRIPOS>MOLECULE
1abf_ligand
   23    23     1     0     0
SMALL
GAST_HUCK


@<TRIPOS>ATOM
      1 C1         14.2200   56.9530   55.1730 C.3       1 FCA         0.1853
      2 C2         12.7840   57.2190   54.8070 C.3       1 FCA         0.1339
      3 C3         12.2730   56.2710   53.7800 C.3       1 FCA         0.1140
      4 C4         13.1220   56.4430   52.5260 C.3       1 FCA         0.1095
      5 C5         14.6030   56.1780   52.8770 C.3       1 FCA         0.0873
      6 C6         15.6060   56.4290   51.7640 C.3       1 FCA        -0.0361
      7 O1         14.4030   55.7180   55.7330 O.3       1 FCA        -0.3649
      8 O2         11.9520   57.2620   56.0600 O.3       1 FCA        -0.3841
      9 O3         10.8700   56.5300   53.4920 O.3       1 FCA        -0.3864
     10 O4         12.9720   57.7720   51.9890 O.3       1 FCA        -0.3866
     11 O5         15.0190   57.0540   53.9120 O.3       1 FCA        -0.3433
     12 H1         14.5568   57.7170   55.8891 H         1 FCA         0.0935
     13 H2         12.7407   58.2211   54.3555 H         1 FCA         0.0671
     14 H3         12.3743   55.2406   54.1513 H         1 FCA         0.0648
     15 H4         12.7949   55.7151   51.7690 H         1 FCA         0.0646
     16 H5         14.6887   55.1320   53.2066 H         1 FCA         0.0621
     17 H6         16.6203   56.2082   52.1278 H         1 FCA         0.0255
     18 H7         15.5501   57.4819   51.4506 H         1 FCA         0.0255
     19 H8         15.3740   55.7787   50.9077 H         1 FCA         0.0255
     20 H9         15.3239   55.5946   55.9308 H         1 FCA         0.2126
     21 H10        11.0673   57.5308   55.8422 H         1 FCA         0.2101
     22 H11        10.3591   56.4177   54.2850 H         1 FCA         0.2100
     23 H12        13.4996   57.8563   51.2035 H         1 FCA         0.2100
@<TRIPOS>BOND
     1    1    2 1  
     2    1    7 1  
     3    1   11 1  
     4    2    3 1  
     5    2    8 1  
     6    3    4 1  
     7    3    9 1  
     8    4    5 1  
     9    4   10 1  
    10    5    6 1  
    11    5   11 1  
    12    1   12 1  
    13    2   13 1  
    14    3   14 1  
    15    4   15 1  
    16    5   16 1  
    17    6   17 1  
    18    6   18 1  
    19    6   19 1  
    20    7   20 1  
    21    8   21 1  
    22    9   22 1  
    23   10   23 1  
@<TRIPOS>SUBSTRUCTURE
     1 FCA         1

