### 
### Created by X-TOOL on Mon Sep 10 21:12:45 2018
### 

@<TRIPOS>MOLECULE
1acj_ligand
   29    31     1     0     0
SMALL
GAST_HUCK


@<TRIPOS>ATOM
      1 C1          6.3620   71.2610   69.0250 C.ar      1 THA        -0.0640
      2 C2          6.6970   70.9550   67.7120 C.ar      1 THA        -0.0521
      3 C3          5.7190   70.5180   66.8190 C.ar      1 THA         0.0179
      4 C4          4.3510   70.3810   67.2600 C.ar      1 THA         0.0195
      5 C5          4.0560   70.7020   68.6030 C.ar      1 THA        -0.0528
      6 C6          5.0530   71.1360   69.4680 C.ar      1 THA        -0.0632
      7 N7          6.0680   70.2360   65.5850 N.ar      1 THA        -0.3281
      8 C8          5.2070   69.8210   64.6830 C.ar      1 THA         0.0105
      9 C9          3.8330   69.6340   64.9950 C.ar      1 THA         0.0052
     10 C10         3.3960   69.9330   66.3090 C.ar      1 THA         0.0665
     11 C11         5.7760   69.4590   63.2890 C.3       1 THA        -0.0081
     12 C12         4.7360   69.3630   62.1450 C.3       1 THA        -0.0400
     13 C13         3.5150   68.5400   62.5970 C.3       1 THA        -0.0439
     14 C14         2.8600   69.1770   63.8480 C.3       1 THA        -0.0210
     15 N15         2.0920   69.7980   66.6250 N.pl3     1 THA        -0.3283
     16 H1          7.1305   71.6006   69.7099 H         1 THA         0.0621
     17 H2          7.7239   71.0564   67.3799 H         1 THA         0.0590
     18 H3          3.0382   70.6086   68.9640 H         1 THA         0.0636
     19 H4          4.8066   71.3785   70.4954 H         1 THA         0.0585
     20 H5          6.2789   68.4842   63.3716 H         1 THA         0.0453
     21 H6          6.5117   70.2290   63.0135 H         1 THA         0.0453
     22 H7          5.1990   68.8760   61.2741 H         1 THA         0.0292
     23 H8          4.4079   70.3756   61.8675 H         1 THA         0.0292
     24 H9          3.8385   67.5171   62.8398 H         1 THA         0.0284
     25 H10         2.7786   68.5077   61.7805 H         1 THA         0.0284
     26 H11         2.2964   70.0614   63.5160 H         1 THA         0.0386
     27 H12         2.1653   68.4381   64.2740 H         1 THA         0.0386
     28 H13         1.7682   70.0139   67.5786 H         1 THA         0.1779
     29 H14         1.4198   69.4790   65.9127 H         1 THA         0.1779
@<TRIPOS>BOND
     1    1    2 ar 
     2    1    6 ar 
     3    2    3 ar 
     4    3    4 ar 
     5    3    7 ar 
     6    4    5 ar 
     7    4   10 ar 
     8    5    6 ar 
     9    7    8 ar 
    10    8    9 ar 
    11    8   11 1  
    12    9   10 ar 
    13    9   14 1  
    14   10   15 1  
    15   11   12 1  
    16   12   13 1  
    17   13   14 1  
    18    1   16 1  
    19    2   17 1  
    20    5   18 1  
    21    6   19 1  
    22   11   20 1  
    23   11   21 1  
    24   12   22 1  
    25   12   23 1  
    26   13   24 1  
    27   13   25 1  
    28   14   26 1  
    29   14   27 1  
    30   15   28 1  
    31   15   29 1  
@<TRIPOS>SUBSTRUCTURE
     1 THA         1

