### 
### Created by X-TOOL on Mon Sep 10 21:12:46 2018
### 

@<TRIPOS>MOLECULE
1ad8_ligand
   72    75     1     0     0
SMALL
GAST_HUCK


@<TRIPOS>ATOM
      1 H1         14.2119  -11.8043   22.5994 H         1 MDL         0.0777
      2 H2         15.7540  -11.8967   21.6830 H         1 MDL         0.0777
      3 H3         14.9188  -10.3185   21.8789 H         1 MDL         0.0777
      4 H4         16.0674  -11.9351   24.0179 H         1 MDL         0.2034
      5 H5         15.3021  -10.4889   24.1974 H         1 MDL         0.2034
      6 H6         17.9048  -10.9125   22.9139 H         1 MDL         0.1123
      7 H7         18.8167  -10.0380   20.7838 H         1 MDL         0.0524
      8 H8         19.6214   -9.5044   22.2985 H         1 MDL         0.0524
      9 H9         20.2445   -8.4440   19.8227 H         1 MDL         0.0287
     10 H10        20.3764   -7.5008   21.3457 H         1 MDL         0.0287
     11 H11        18.2754   -7.4492   19.2157 H         1 MDL         0.0313
     12 H12        18.9393   -6.1153   20.2190 H         1 MDL         0.0313
     13 H13        17.3894   -6.4455   21.8872 H         1 MDL         0.0802
     14 H14        15.8780   -5.3591   20.8375 H         1 MDL         0.1857
     15 H15        13.8341   -6.8978   19.2721 H         1 MDL         0.0598
     16 H16        12.4924   -4.7305   19.7862 H         1 MDL         0.0372
     17 H17        13.8139   -4.3389   20.9382 H         1 MDL         0.0372
     18 H18        12.7213   -8.0073   20.3518 H         1 MDL         0.0795
     19 H19        11.2064   -8.7289   22.3193 H         1 MDL         0.2216
     20 H20        10.0755   -7.4321   24.6863 H         1 MDL         0.0541
     21 H21        10.0950   -5.2946   25.9671 H         1 MDL         0.0530
     22 H22        11.4651   -3.3547   25.1590 H         1 MDL         0.0510
     23 H23        12.7117   -3.6038   23.0113 H         1 MDL         0.0540
     24 H24        15.1639   -4.2213   18.5412 H         1 MDL         0.0681
     25 H25        12.8391   -4.3016   18.4251 H         1 MDL         0.2101
     26 H26        17.5060  -11.1526   25.4804 H         1 MDL         0.0507
     27 H27        17.0499   -9.4155   25.4455 H         1 MDL         0.0507
     28 H28        19.9451  -11.4489   23.9292 H         1 MDL         0.0557
     29 H29        22.3195  -10.6770   24.1118 H         1 MDL         0.0599
     30 H30        22.8566   -8.5977   25.3644 H         1 MDL         0.0559
     31 H31        21.0619   -7.3886   26.6078 H         1 MDL         0.0599
     32 H32        18.6939   -8.1257   26.4061 H         1 MDL         0.0557
     33 C1         15.1490  -11.2790   22.3630 C.3       1 MDL        -0.0427
     34 N2         15.8950  -11.0370   23.5940 N.4       1 MDL         0.2454
     35 C6         17.1720  -10.3510   23.5120 C.3       1 MDL         0.0761
     36 C7         16.8650   -8.9970   22.8660 C.2       1 MDL         0.2313
     37 N8         17.7300   -8.5700   21.9090 N.am      1 MDL        -0.2470
     38 O9         15.8720   -8.3520   23.2220 O.2       1 MDL        -0.3903
     39 C11        19.0080   -9.1800   21.4450 C.3       1 MDL         0.0371
     40 C12        19.6880   -8.0480   20.6850 C.3       1 MDL        -0.0281
     41 C15        18.5890   -7.1580   20.2290 C.3       1 MDL        -0.0104
     42 C18        17.4130   -7.2910   21.1840 C.3       1 MDL         0.1338
     43 C21        16.0790   -7.3500   20.4530 C.2       1 MDL         0.2023
     44 N23        15.4790   -6.1370   20.3520 N.am      1 MDL        -0.2781
     45 O24        15.6120   -8.4180   20.0790 O.2       1 MDL        -0.3945
     46 C25        14.2680   -5.9280   19.5570 C.3       1 MDL         0.0780
     47 C26        13.2860   -5.1530   20.4200 C.3       1 MDL        -0.0107
     48 C27        12.6970   -6.0570   21.4030 C.2       1 MDL        -0.0440
     49 C30        12.3900   -7.3920   21.1870 C.2       1 MDL         0.0165
     50 C31        12.1050   -5.6480   22.6300 C.ar      1 MDL        -0.0215
     51 C32        11.3890   -6.7300   23.1110 C.ar      1 MDL         0.0603
     52 N33        11.6000   -7.7830   22.2130 N.pl3     1 MDL        -0.2891
     53 C34        10.6560   -6.5940   24.3180 C.ar      1 MDL        -0.0443
     54 C35        10.6700   -5.3780   25.0520 C.ar      1 MDL        -0.0768
     55 C36        11.4250   -4.2820   24.5990 C.ar      1 MDL        -0.0792
     56 C37        12.1290   -4.4380   23.3850 C.ar      1 MDL        -0.0747
     57 C44        14.5960   -5.1330   18.3040 C.3       1 MDL         0.1509
     58 O46        13.3210   -4.8120   17.7850 O.3       1 MDL        -0.3831
     59 C47        15.4280   -6.0350   17.3240 C.3       1 MDL         0.3688
     60 F48        14.8260   -7.2230   17.1640 F         1 MDL        -0.1928
     61 F49        16.6030   -6.2760   17.8850 F         1 MDL        -0.1928
     62 C50        15.7770   -5.4260   15.9940 C.3       1 MDL         0.4566
     63 F51        16.3750   -6.3770   15.3350 F         1 MDL        -0.1649
     64 F52        16.5910   -4.3950   16.1330 F         1 MDL        -0.1649
     65 F53        14.6780   -5.0860   15.4090 F         1 MDL        -0.1649
     66 C55        17.6590  -10.1940   24.9630 C.3       1 MDL         0.0416
     67 C57        19.1330   -9.8040   25.1100 C.ar      1 MDL        -0.0353
     68 C60        20.1800  -10.5490   24.4860 C.ar      1 MDL        -0.0600
     69 C61        21.5280  -10.1140   24.5930 C.ar      1 MDL        -0.0686
     70 C62        21.8340   -8.9550   25.3220 C.ar      1 MDL        -0.0687
     71 C63        20.8140   -8.2520   26.0010 C.ar      1 MDL        -0.0686
     72 C64        19.4730   -8.6740   25.8890 C.ar      1 MDL        -0.0600
@<TRIPOS>BOND
     1   33    1 1  
     2   33    2 1  
     3   33    3 1  
     4   34    4 1  
     5   34    5 1  
     6   35    6 1  
     7   39    7 1  
     8   39    8 1  
     9   40    9 1  
    10   40   10 1  
    11   41   11 1  
    12   41   12 1  
    13   42   13 1  
    14   44   14 1  
    15   46   15 1  
    16   47   16 1  
    17   47   17 1  
    18   49   18 1  
    19   52   19 1  
    20   53   20 1  
    21   54   21 1  
    22   55   22 1  
    23   56   23 1  
    24   57   24 1  
    25   58   25 1  
    26   66   26 1  
    27   66   27 1  
    28   68   28 1  
    29   69   29 1  
    30   70   30 1  
    31   71   31 1  
    32   72   32 1  
    33   34   33 1  
    34   35   34 1  
    35   35   36 1  
    36   66   35 1  
    37   36   37 am 
    38   36   38 2  
    39   37   39 1  
    40   37   42 1  
    41   39   40 1  
    42   41   40 1  
    43   42   41 1  
    44   42   43 1  
    45   43   44 am 
    46   43   45 2  
    47   44   46 1  
    48   46   47 1  
    49   46   57 1  
    50   47   48 1  
    51   48   49 2  
    52   48   50 1  
    53   49   52 1  
    54   50   51 ar 
    55   50   56 ar 
    56   51   52 1  
    57   51   53 ar 
    58   53   54 ar 
    59   55   54 ar 
    60   56   55 ar 
    61   57   58 1  
    62   57   59 1  
    63   59   60 1  
    64   59   61 1  
    65   59   62 1  
    66   62   63 1  
    67   62   64 1  
    68   62   65 1  
    69   67   66 1  
    70   68   67 ar 
    71   67   72 ar 
    72   69   68 ar 
    73   70   69 ar 
    74   70   71 ar 
    75   71   72 ar 
@<TRIPOS>SUBSTRUCTURE
     1 MDL         1

