### 
### Created by X-TOOL on Mon Sep 10 21:12:46 2018
### 

@<TRIPOS>MOLECULE
1af2_ligand
   29    30     1     0     0
SMALL
GAST_HUCK


@<TRIPOS>ATOM
      1 O5         33.2440   51.8150   10.9650 O.3       1 U          -0.3924
      2 C5         34.0900   52.0600   12.1040 C.3       1 U           0.0730
      3 C4         35.4680   51.6920   11.7190 C.3       1 U           0.1135
      4 O4         35.6230   50.3370   11.3450 O.3       1 U          -0.3367
      5 C3         36.0780   52.5880   10.6320 C.3       1 U           0.1145
      6 O3         37.4630   52.7290   10.8190 O.3       1 U          -0.3864
      7 C2         35.8650   51.8640    9.3820 C.3       1 U           0.1387
      8 O2         36.9600   52.0210    8.4420 O.3       1 U          -0.3836
      9 C1         35.8430   50.4710    9.9260 C.3       1 U           0.2058
     10 N1         35.2970   49.0220    9.4500 N.am      1 U          -0.1592
     11 C2         36.0660   48.3560    8.5220 C.2       1 U           0.3328
     12 O2         37.2830   48.4750    8.3920 O.2       1 U          -0.3815
     13 N3         35.3750   47.5660    7.6410 N.am      1 U          -0.1865
     14 C4         34.0150   47.4990    7.4960 C.2       1 U           0.1822
     15 O4         33.5860   46.9810    6.5050 O.2       1 U          -0.4124
     16 C5         33.2540   48.1100    8.5500 C.2       1 U           0.0062
     17 C6         33.8690   48.8520    9.4840 C.2       1 U           0.0591
     18 H1         32.3478   52.0431   11.1827 H         1 U           0.2095
     19 H2         33.7611   51.4462   12.9555 H         1 U           0.0584
     20 H3         34.0486   53.1237   12.3811 H         1 U           0.0584
     21 H4         36.0764   51.8388   12.6236 H         1 U           0.0647
     22 H5         35.5912   53.5743   10.6160 H         1 U           0.0648
     23 H6         37.6284   53.1217   11.6681 H         1 U           0.2100
     24 H7         34.9171   52.1443    8.8994 H         1 U           0.0676
     25 H8         37.7612   51.6930    8.8332 H         1 U           0.2101
     26 H9         36.9229   50.2905    9.8198 H         1 U           0.0997
     27 H10        35.9197   46.9783    7.0427 H         1 U           0.2259
     28 H11        32.1747   47.9707    8.5913 H         1 U           0.0258
     29 H12        33.2847   49.3272   10.2706 H         1 U           0.1178
@<TRIPOS>BOND
     1    1    2 1  
     2    2    3 1  
     3    3    4 1  
     4    3    5 1  
     5    4    9 1  
     6    5    6 1  
     7    5    7 1  
     8    7    8 1  
     9    7    9 1  
    10    9   10 1  
    11   10   11 am 
    12   10   17 1  
    13   11   12 2  
    14   11   13 am 
    15   13   14 am 
    16   14   15 2  
    17   14   16 1  
    18   16   17 2  
    19    1   18 1  
    20    2   19 1  
    21    2   20 1  
    22    3   21 1  
    23    5   22 1  
    24    6   23 1  
    25    7   24 1  
    26    8   25 1  
    27    9   26 1  
    28   13   27 1  
    29   16   28 1  
    30   17   29 1  
@<TRIPOS>SUBSTRUCTURE
     1 U           1

