### 
### Created by X-TOOL on Fri Nov 18 12:18:52 2016
### 

@<TRIPOS>MOLECULE
1af6_ligand
   45    46     1     0     0
SMALL
GAST_HUCK


@<TRIPOS>ATOM
      1 C1         12.4190   39.2880   85.7670 C.3       1 GLC         0.1912
      2 C2         13.0120   37.8620   85.6750 C.3       1 GLC         0.1342
      3 C3         14.4260   37.9190   85.0500 C.3       1 GLC         0.1141
      4 C4         14.3370   38.5690   83.6650 C.3       1 GLC         0.1119
      5 C5         13.5240   39.8610   83.6470 C.3       1 GLC         0.1130
      6 C6         13.0830   40.1780   82.2090 C.3       1 GLC         0.0730
      7 O2         13.0850   37.3160   86.9890 O.3       1 GLC        -0.3841
      8 O3         14.9570   36.5940   84.9620 O.3       1 GLC        -0.3864
      9 O4         15.6480   38.8500   83.1520 O.3       1 GLC        -0.3865
     10 O5         12.3140   39.8530   84.4570 O.3       1 GLC        -0.3404
     11 O6         12.3130   41.3720   82.2470 O.3       1 GLC        -0.3924
     12 C1         11.4430   40.9520   87.8580 C.3       1 GLC         0.1009
     13 C2         12.8040   41.2550   87.1810 C.3       1 GLC         0.2252
     14 C3         13.9170   41.7790   88.1490 C.3       1 GLC         0.1395
     15 C4         14.8430   42.4840   87.1270 C.3       1 GLC         0.1145
     16 C5         13.7690   43.2140   86.2970 C.3       1 GLC         0.1134
     17 C6         14.2040   43.6460   84.9250 C.3       1 GLC         0.0730
     18 O1         10.9650   42.0370   88.6640 O.3       1 GLC        -0.3896
     19 O2         13.2970   40.0420   86.5380 O.3       1 GLC        -0.3125
     20 O3         14.5930   40.6720   88.7730 O.3       1 GLC        -0.3837
     21 O4         15.7700   43.3640   87.7470 O.3       1 GLC        -0.3864
     22 O5         12.6650   42.2850   86.1410 O.3       1 GLC        -0.3362
     23 O6         13.2820   44.6090   84.4310 O.3       1 GLC        -0.3924
     24 H1         11.4259   39.2587   86.2391 H         1 GLC         0.0939
     25 H2         12.3626   37.2321   85.0494 H         1 GLC         0.0671
     26 H3         15.0834   38.5263   85.6895 H         1 GLC         0.0648
     27 H4         13.8455   37.8501   82.9931 H         1 GLC         0.0647
     28 H5         14.1761   40.6673   84.0137 H         1 GLC         0.0647
     29 H6         12.4741   39.3519   81.8130 H         1 GLC         0.0584
     30 H7         13.9662   40.3219   81.5693 H         1 GLC         0.0584
     31 H8         13.6446   37.8632   87.5274 H         1 GLC         0.2101
     32 H9         15.8281   36.6276   84.5844 H         1 GLC         0.2100
     33 H10        16.1662   38.0538   83.1572 H         1 GLC         0.2100
     34 H11        11.5550   41.2410   82.8045 H         1 GLC         0.2095
     35 H12        11.5594   40.0648   88.4978 H         1 GLC         0.0612
     36 H13        10.7000   40.7438   87.0740 H         1 GLC         0.0612
     37 H14        13.5261   42.4699   88.9104 H         1 GLC         0.0675
     38 H15        15.3987   41.7577   86.5157 H         1 GLC         0.0648
     39 H16        13.4396   44.1041   86.8531 H         1 GLC         0.0647
     40 H17        14.2241   42.7755   84.2529 H         1 GLC         0.0584
     41 H18        15.2086   44.0907   84.9792 H         1 GLC         0.0584
     42 H19        10.1319   41.7980   89.0529 H         1 GLC         0.2096
     43 H20        14.8503   40.0441   88.1082 H         1 GLC         0.2101
     44 H21        15.3054   43.9504   88.3324 H         1 GLC         0.2100
     45 H22        13.2660   45.3587   85.0141 H         1 GLC         0.2095
@<TRIPOS>BOND
     1    1    2 1  
     2    1   10 1  
     3    2    3 1  
     4    2    7 1  
     5    3    4 1  
     6    3    8 1  
     7    5    4 1  
     8    4    9 1  
     9    5    6 1  
    10   10    5 1  
    11    6   11 1  
    12   13   12 1  
    13   12   18 1  
    14   13   14 1  
    15   19   13 1  
    16   13   22 1  
    17   14   15 1  
    18   14   20 1  
    19   16   15 1  
    20   15   21 1  
    21   16   17 1  
    22   22   16 1  
    23   17   23 1  
    24   19    1 1  
    25    1   24 1  
    26    2   25 1  
    27    3   26 1  
    28    4   27 1  
    29    5   28 1  
    30    6   29 1  
    31    6   30 1  
    32    7   31 1  
    33    8   32 1  
    34    9   33 1  
    35   11   34 1  
    36   12   35 1  
    37   12   36 1  
    38   14   37 1  
    39   15   38 1  
    40   16   39 1  
    41   17   40 1  
    42   17   41 1  
    43   18   42 1  
    44   20   43 1  
    45   21   44 1  
    46   23   45 1  
@<TRIPOS>SUBSTRUCTURE
     1 GLC         1

