### 
### Created by X-TOOL on Mon Sep 10 21:12:45 2018
### 

@<TRIPOS>MOLECULE
1ai4_ligand
   19    19     1     0     0
SMALL
GAST_HUCK


@<TRIPOS>ATOM
      1 C1         13.8060   37.7840   36.1770 C.2       1 DHY         0.0445
      2 C2         13.5920   36.3210   35.7700 C.3       1 DHY         0.0261
      3 C1'        12.4160   35.9970   34.8980 C.ar      1 DHY        -0.0497
      4 C2'        12.3640   36.6850   33.6940 C.ar      1 DHY        -0.0384
      5 C3'        11.3370   36.4780   32.8090 C.ar      1 DHY         0.1101
      6 O3'        11.0820   37.0600   31.5790 O.3       1 DHY        -0.3385
      7 C4'        10.3460   35.5510   33.1180 C.ar      1 DHY         0.1090
      8 O4'         9.4350   35.4550   32.0850 O.3       1 DHY        -0.3413
      9 C5'        10.3720   34.8500   34.3070 C.ar      1 DHY        -0.0479
     10 C6'        11.4240   35.0560   35.2000 C.ar      1 DHY        -0.0784
     11 O1         14.4450   38.0110   37.1970 O.co2     1 DHY        -0.5667
     12 O2         13.2690   38.7890   35.7080 O.co2     1 DHY        -0.5667
     13 H1         13.4835   35.7366   36.6956 H         1 DHY         0.0566
     14 H2         14.4958   35.9951   35.2344 H         1 DHY         0.0566
     15 H3         13.1455   37.3954   33.4498 H         1 DHY         0.0453
     16 H4         11.0657   36.3870   30.9088 H         1 DHY         0.2442
     17 H5          9.6743   36.0633   31.3957 H         1 DHY         0.2420
     18 H6          9.5825   34.1462   34.5446 H         1 DHY         0.0493
     19 H7         11.4732   34.4902   36.1233 H         1 DHY         0.0439
@<TRIPOS>BOND
     1    1   12 ar 
     2    1   11 ar 
     3    1    2 1  
     4    2    3 1  
     5    3   10 ar 
     6    3    4 ar 
     7    4    5 ar 
     8    5    7 ar 
     9    5    6 1  
    10    7    9 ar 
    11    7    8 1  
    12    9   10 ar 
    13    2   13 1  
    14    2   14 1  
    15    4   15 1  
    16    6   16 1  
    17    8   17 1  
    18    9   18 1  
    19   10   19 1  
@<TRIPOS>SUBSTRUCTURE
     1 DHY         1

