### 
### Created by X-TOOL on Mon Sep 10 21:12:45 2018
### 

@<TRIPOS>MOLECULE
1ai6_ligand
   18    18     1     0     0
SMALL
GAST_HUCK


@<TRIPOS>ATOM
      1 C8         12.9090   37.8640   35.4810 C.2       1 4HP         0.0446
      2 O1         13.4740   37.7640   36.5650 O.co2     1 4HP        -0.5667
      3 O2         12.1200   38.7990   35.2070 O.co2     1 4HP        -0.5667
      4 C7         13.1850   36.7680   34.4310 C.3       1 4HP         0.0285
      5 C1         11.9170   36.2180   33.8460 C.ar      1 4HP        -0.0409
      6 C2         11.2130   35.1610   34.4330 C.ar      1 4HP        -0.0671
      7 C3         10.0570   34.7350   33.8350 C.ar      1 4HP        -0.0395
      8 C4          9.6580   35.3310   32.6360 C.ar      1 4HP         0.0807
      9 C5         10.3320   36.4010   32.0670 C.ar      1 4HP        -0.0395
     10 C6         11.4970   36.8260   32.6900 C.ar      1 4HP        -0.0671
     11 O4          8.5270   34.8270   32.0260 O.3       1 4HP        -0.3375
     12 H1         13.7396   35.9481   34.9107 H         1 4HP         0.0567
     13 H2         13.7929   37.1972   33.6209 H         1 4HP         0.0567
     14 H3         11.5742   34.6902   35.3401 H         1 4HP         0.0533
     15 H4          9.4615   33.9486   34.2844 H         1 4HP         0.0526
     16 H5          9.9633   36.8865   31.1706 H         1 4HP         0.0526
     17 H6         12.0749   37.6379   32.2635 H         1 4HP         0.0533
     18 H7          7.8690   35.5098   31.9677 H         1 4HP         0.2459
@<TRIPOS>BOND
     1    1    2 ar 
     2    1    3 ar 
     3    1    4 1  
     4    4    5 1  
     5    5    6 ar 
     6    5   10 ar 
     7    6    7 ar 
     8    7    8 ar 
     9    8    9 ar 
    10    8   11 1  
    11    9   10 ar 
    12    4   12 1  
    13    4   13 1  
    14    6   14 1  
    15    7   15 1  
    16    9   16 1  
    17   10   17 1  
    18   11   18 1  
@<TRIPOS>SUBSTRUCTURE
     1 4HP         1

