### 
### Created by X-TOOL on Mon Sep 10 21:12:45 2018
### 

@<TRIPOS>MOLECULE
1aid_ligand
   57    60     1     0     0
SMALL
GAST_HUCK


@<TRIPOS>ATOM
      1 N1         63.8400   38.1860    0.2080 N.4       1 THK         0.2342
      2 C2         64.9660   37.9320    1.1280 C.3       1 THK        -0.0370
      3 C3         64.4870   37.5930    2.5450 C.3       1 THK        -0.0076
      4 C4         63.4750   38.6190    3.0900 C.3       1 THK         0.0648
      5 O19        64.0940   39.9020    3.1010 O.3       1 THK        -0.4238
      6 C5         62.2980   38.6900    2.1020 C.3       1 THK        -0.0076
      7 C6         62.7860   39.0910    0.7070 C.3       1 THK        -0.0370
      8 C7         64.2990   38.7080   -1.0960 C.3       1 THK        -0.0327
      9 C8         65.1080   37.6800   -1.8950 C.3       1 THK        -0.0185
     10 C9         66.1910   38.4350   -2.6840 C.3       1 THK        -0.0504
     11 C10        66.4920   37.7880   -4.0510 C.3       1 THK         0.0487
     12 C12        65.3550   37.8840   -4.9100 C.ar      1 THK        -0.0330
     13 C13        64.9660   39.1330   -5.4240 C.ar      1 THK        -0.0390
     14 C14        63.7880   39.2780   -6.1630 C.ar      1 THK         0.0034
     15 C15        62.9840   38.1650   -6.4090 C.ar      1 THK         0.1668
     16 F18        61.8000   38.3040   -7.0750 F         1 THK        -0.1556
     17 C16        63.3860   36.9110   -5.9410 C.ar      1 THK         0.0034
     18 C17        64.5670   36.7620   -5.2050 C.ar      1 THK        -0.0390
     19 C20        63.1190   38.3480    4.4490 C.ar      1 THK        -0.0227
     20 C21        64.1340   38.1280    5.4000 C.ar      1 THK        -0.0372
     21 C22        63.8320   37.7680    6.7150 C.ar      1 THK        -0.0181
     22 C23        62.5010   37.6390    7.1130 C.ar      1 THK         0.0714
     23 CL6        62.1440   37.0960    8.7360 Cl        1 THK        -0.0420
     24 C24        61.4750   37.8990    6.1890 C.ar      1 THK        -0.0181
     25 C25        61.7790   38.2660    4.8680 C.ar      1 THK        -0.0372
     26 S51        66.9760   36.0570   -3.7650 S.3       1 THK        -0.1868
     27 C52        68.3990   36.0000   -4.8960 C.3       1 THK        -0.0061
     28 C55        68.8510   37.3620   -5.4300 C.3       1 THK        -0.0061
     29 S58        67.8790   38.7380   -4.7840 S.3       1 THK        -0.1868
     30 H1         63.4052   37.2914    0.0449 H         1 THK         0.2033
     31 H2         65.5976   38.8315    1.1727 H         1 THK         0.0807
     32 H3         65.5565   37.0881    0.7417 H         1 THK         0.0807
     33 H4         65.3590   37.5682    3.2151 H         1 THK         0.0246
     34 H5         64.0095   36.6022    2.5278 H         1 THK         0.0246
     35 H6         64.3500   40.1364    2.2167 H         1 THK         0.1958
     36 H7         61.5717   39.4352    2.4585 H         1 THK         0.0246
     37 H8         61.8139   37.7039    2.0455 H         1 THK         0.0246
     38 H9         61.9345   39.0622    0.0112 H         1 THK         0.0807
     39 H10        63.1883   40.1138    0.7521 H         1 THK         0.0807
     40 H11        64.9303   39.5912   -0.9187 H         1 THK         0.0814
     41 H12        63.4187   38.9993   -1.6877 H         1 THK         0.0814
     42 H13        64.4460   37.1431   -2.5903 H         1 THK         0.0309
     43 H14        65.5794   36.9612   -1.2087 H         1 THK         0.0309
     44 H15        67.1161   38.4466   -2.0890 H         1 THK         0.0185
     45 H16        65.8494   39.4672   -2.8509 H         1 THK         0.0185
     46 H17        65.5911   40.0002   -5.2441 H         1 THK         0.0840
     47 H18        63.5006   40.2516   -6.5433 H         1 THK         0.0693
     48 H19        62.7742   36.0412   -6.1511 H         1 THK         0.0693
     49 H20        64.8725   35.7798   -4.8631 H         1 THK         0.0840
     50 H21        65.1711   38.2404    5.1052 H         1 THK         0.0848
     51 H22        64.6307   37.5890    7.4257 H         1 THK         0.0703
     52 H23        60.4395   37.8156    6.4986 H         1 THK         0.0703
     53 H24        60.9794   38.4865    4.1701 H         1 THK         0.0848
     54 H25        68.1280   35.3687   -5.7551 H         1 THK         0.0376
     55 H26        69.2446   35.5454   -4.3591 H         1 THK         0.0376
     56 H27        68.7610   37.3549   -6.5263 H         1 THK         0.0376
     57 H28        69.9035   37.5156   -5.1495 H         1 THK         0.0376
@<TRIPOS>BOND
     1    1    2 1  
     2    1    7 1  
     3    1    8 1  
     4    2    3 1  
     5    3    4 1  
     6    4    5 1  
     7    4    6 1  
     8    4   19 1  
     9    6    7 1  
    10    8    9 1  
    11    9   10 1  
    12   10   11 1  
    13   11   12 1  
    14   11   26 1  
    15   11   29 1  
    16   12   13 ar 
    17   12   18 ar 
    18   13   14 ar 
    19   14   15 ar 
    20   15   16 1  
    21   15   17 ar 
    22   17   18 ar 
    23   19   20 ar 
    24   19   25 ar 
    25   20   21 ar 
    26   21   22 ar 
    27   22   23 1  
    28   22   24 ar 
    29   24   25 ar 
    30   26   27 1  
    31   27   28 1  
    32   28   29 1  
    33    1   30 1  
    34    2   31 1  
    35    2   32 1  
    36    3   33 1  
    37    3   34 1  
    38    5   35 1  
    39    6   36 1  
    40    6   37 1  
    41    7   38 1  
    42    7   39 1  
    43    8   40 1  
    44    8   41 1  
    45    9   42 1  
    46    9   43 1  
    47   10   44 1  
    48   10   45 1  
    49   13   46 1  
    50   14   47 1  
    51   17   48 1  
    52   18   49 1  
    53   20   50 1  
    54   21   51 1  
    55   24   52 1  
    56   25   53 1  
    57   27   54 1  
    58   27   55 1  
    59   28   56 1  
    60   28   57 1  
@<TRIPOS>SUBSTRUCTURE
     1 THK         1

