### 
### Created by X-TOOL on Mon Sep 10 21:12:46 2018
### 

@<TRIPOS>MOLECULE
1aj6_ligand
   80    83     1     0     0
SMALL
GAST_HUCK


@<TRIPOS>ATOM
      1 C1         60.2080   -1.1770   37.8380 C.3       1 NOV         0.0371
      2 O1         60.3090   -2.4250   37.1380 O.3       1 NOV        -0.3739
      3 N1         58.4870   -3.0220   41.3780 N.am      1 NOV        -0.2763
      4 C12        58.5440   -3.8040   40.3320 C.2       1 NOV         0.3173
      5 O4         58.7060   -4.9860   40.4060 O.2       1 NOV        -0.3777
      6 O5         58.4500   -3.1640   39.1960 O.3       1 NOV        -0.2552
      7 C27        59.0250   -2.9850   36.8350 C.3       1 NOV         0.1196
      8 C28        58.5870   -3.9190   37.9570 C.3       1 NOV         0.1476
      9 C29        57.1810   -4.3810   37.6050 C.3       1 NOV         0.1428
     10 O6         56.2950   -3.2810   37.7570 O.3       1 NOV        -0.3833
     11 C30        57.1980   -5.0740   36.2490 C.3       1 NOV         0.2081
     12 O7         57.7020   -4.2550   35.1850 O.3       1 NOV        -0.3366
     13 C31        58.9310   -3.5770   35.4010 C.3       1 NOV         0.0962
     14 C23        60.1340   -4.5170   35.1500 C.3       1 NOV        -0.0334
     15 C26        58.8800   -2.4100   34.3740 C.3       1 NOV        -0.0334
     16 O8         58.1130   -6.1070   36.5160 O.3       1 NOV        -0.2929
     17 C3         58.2370   -7.1590   35.6250 C.ar      1 NOV         0.0873
     18 C4         59.0090   -8.1900   36.1540 C.ar      1 NOV         0.0162
     19 C2         59.6180   -8.1800   37.4960 C.3       1 NOV        -0.0352
     20 C5         59.1650   -9.3130   35.4250 C.ar      1 NOV         0.1262
     21 C9         58.6370   -9.4340   34.1250 C.ar      1 NOV         0.0222
     22 C10        57.7990   -8.4310   33.5990 C.ar      1 NOV        -0.0762
     23 C11        57.5800   -7.2840   34.3710 C.ar      1 NOV        -0.0504
     24 O10        59.9600  -10.2950   36.0390 O.3       1 NOV        -0.2217
     25 C6         60.2710  -11.3850   35.3620 C.2       1 NOV         0.2825
     26 O11        61.0220  -12.2030   35.7970 O.2       1 NOV        -0.3794
     27 C7         59.7300  -11.5880   33.9960 C.2       1 NOV         0.1687
     28 C8         58.9640  -10.6720   33.3960 C.2       1 NOV         0.1117
     29 O9         58.5030  -10.8790   32.1470 O.3       1 NOV        -0.3460
     30 N2         59.9720  -12.8740   33.3740 N.am      1 NOV        -0.2404
     31 C13        60.9640  -13.2710   32.5620 C.2       1 NOV         0.2176
     32 O2         60.9380  -14.4120   32.1770 O.2       1 NOV        -0.3812
     33 C14        62.0440  -12.4090   32.0930 C.ar      1 NOV         0.0368
     34 C15        61.7860  -11.1750   31.4630 C.ar      1 NOV        -0.0477
     35 C16        62.8800  -10.4360   30.9820 C.ar      1 NOV        -0.0043
     36 C17        64.1750  -10.9130   31.1700 C.ar      1 NOV         0.0958
     37 O3         65.2390  -10.1760   30.7190 O.3       1 NOV        -0.3332
     38 C18        64.4340  -12.1480   31.7980 C.ar      1 NOV        -0.0335
     39 C19        63.3420  -12.9030   32.2510 C.ar      1 NOV        -0.0572
     40 C20        62.6940   -9.0810   30.3490 C.3       1 NOV        -0.0144
     41 C21        62.7960   -7.8970   31.2920 C.2       1 NOV        -0.0995
     42 C22        61.8120   -7.0620   31.6820 C.2       1 NOV        -0.0848
     43 C24        62.0520   -5.9260   32.6540 C.3       1 NOV        -0.0400
     44 C25        60.3980   -7.1480   31.1990 C.3       1 NOV        -0.0400
     45 H1         61.2167   -0.7906   38.0460 H         1 NOV         0.0524
     46 H2         59.6715   -1.3306   38.7859 H         1 NOV         0.0524
     47 H3         59.6584   -0.4527   37.2188 H         1 NOV         0.0524
     48 H4         58.5496   -3.4110   42.2971 H         1 NOV         0.1831
     49 H5         58.3808   -2.0348   41.2590 H         1 NOV         0.1831
     50 H6         58.3133   -2.1464   36.8474 H         1 NOV         0.0655
     51 H7         59.2848   -4.7615   38.0726 H         1 NOV         0.0703
     52 H8         56.8734   -5.1392   38.3402 H         1 NOV         0.0679
     53 H9         56.3722   -2.9330   38.6376 H         1 NOV         0.2101
     54 H10        56.2019   -5.4557   35.9805 H         1 NOV         0.0990
     55 H11        60.0667   -4.9355   34.1350 H         1 NOV         0.0258
     56 H12        60.1200   -5.3348   35.8855 H         1 NOV         0.0258
     57 H13        61.0705   -3.9490   35.2510 H         1 NOV         0.0258
     58 H14        58.8133   -2.8205   33.3556 H         1 NOV         0.0258
     59 H15        59.7917   -1.8013   34.4650 H         1 NOV         0.0258
     60 H16        57.9989   -1.7829   34.5749 H         1 NOV         0.0258
     61 H17        59.4189   -7.2134   37.9818 H         1 NOV         0.0344
     62 H18        60.7042   -8.3287   37.4069 H         1 NOV         0.0344
     63 H19        59.1854   -8.9904   38.1011 H         1 NOV         0.0344
     64 H20        57.3373   -8.5442   32.6248 H         1 NOV         0.0484
     65 H21        56.9183   -6.5017   34.0171 H         1 NOV         0.0450
     66 H22        57.5531  -10.8690   32.1556 H         1 NOV         0.2418
     67 H23        59.2922  -13.5771   33.5828 H         1 NOV         0.2201
     68 H24        60.7725  -10.8065   31.3527 H         1 NOV         0.0575
     69 H25        64.9213   -9.3742   30.3207 H         1 NOV         0.2477
     70 H26        65.4494  -12.5047   31.9274 H         1 NOV         0.0535
     71 H27        63.5041  -13.8659   32.7218 H         1 NOV         0.0583
     72 H28        61.6972   -9.0585   29.8844 H         1 NOV         0.0479
     73 H29        63.4635   -8.9620   29.5721 H         1 NOV         0.0479
     74 H30        63.7841   -7.6973   31.7039 H         1 NOV         0.0258
     75 H31        61.1104   -5.3831   32.8232 H         1 NOV         0.0378
     76 H32        62.8018   -5.2381   32.2362 H         1 NOV         0.0378
     77 H33        62.4180   -6.3315   33.6088 H         1 NOV         0.0378
     78 H34        60.2999   -7.9920   30.5004 H         1 NOV         0.0378
     79 H35        60.1285   -6.2135   30.6851 H         1 NOV         0.0378
     80 H36        59.7263   -7.3018   32.0564 H         1 NOV         0.0378
@<TRIPOS>BOND
     1    1    2 1  
     2    2    7 1  
     3    7   13 1  
     4    7    8 1  
     5    8    9 1  
     6    8    6 1  
     7    6    4 1  
     8    4    5 2  
     9    4    3 am 
    10    9   11 1  
    11    9   10 1  
    12   11   16 1  
    13   11   12 1  
    14   12   13 1  
    15   13   15 1  
    16   13   14 1  
    17   16   17 1  
    18   17   23 ar 
    19   17   18 ar 
    20   18   20 ar 
    21   18   19 1  
    22   20   24 1  
    23   20   21 ar 
    24   21   28 1  
    25   21   22 ar 
    26   22   23 ar 
    27   28   29 1  
    28   28   27 2  
    29   27   30 am 
    30   27   25 1  
    31   25   26 2  
    32   25   24 1  
    33   30   31 am 
    34   31   33 1  
    35   31   32 2  
    36   33   39 ar 
    37   33   34 ar 
    38   34   35 ar 
    39   35   40 1  
    40   35   36 ar 
    41   36   38 ar 
    42   36   37 1  
    43   38   39 ar 
    44   40   41 1  
    45   41   42 2  
    46   42   44 1  
    47   42   43 1  
    48    1   45 1  
    49    1   46 1  
    50    1   47 1  
    51    3   48 1  
    52    3   49 1  
    53    7   50 1  
    54    8   51 1  
    55    9   52 1  
    56   10   53 1  
    57   11   54 1  
    58   14   55 1  
    59   14   56 1  
    60   14   57 1  
    61   15   58 1  
    62   15   59 1  
    63   15   60 1  
    64   19   61 1  
    65   19   62 1  
    66   19   63 1  
    67   22   64 1  
    68   23   65 1  
    69   29   66 1  
    70   30   67 1  
    71   34   68 1  
    72   37   69 1  
    73   38   70 1  
    74   39   71 1  
    75   40   72 1  
    76   40   73 1  
    77   41   74 1  
    78   43   75 1  
    79   43   76 1  
    80   43   77 1  
    81   44   78 1  
    82   44   79 1  
    83   44   80 1  
@<TRIPOS>SUBSTRUCTURE
     1 NOV         1

