### 
### Created by X-TOOL on Mon Sep 10 21:12:45 2018
### 

@<TRIPOS>MOLECULE
1ajn_ligand
   19    19     1     0     0
SMALL
GAST_HUCK


@<TRIPOS>ATOM
      1 C1         13.9920   37.8040   36.4180 C.2       1 AAN         0.3576
      2 C2         13.8720   36.3160   36.0350 C.3       1 AAN         0.0965
      3 C1'        12.8420   36.0860   34.9540 C.ar      1 AAN        -0.0192
      4 C2'        13.0210   36.6710   33.7170 C.ar      1 AAN        -0.0501
      5 C3'        11.9730   36.5260   32.8230 C.ar      1 AAN        -0.0301
      6 C4'        10.8990   35.7310   33.1130 C.ar      1 AAN         0.1306
      7 N4'        10.1470   35.5500   32.3480 N.2       1 AAN         0.0377
      8 O3'        10.4890   36.2740   31.1760 O.2       1 AAN        -0.1524
      9 O4'         9.0250   34.7280   32.6160 O.2       1 AAN        -0.1524
     10 C5'        10.7210   35.0520   34.3140 C.ar      1 AAN        -0.0301
     11 C6'        11.7420   35.2890   35.2320 C.ar      1 AAN        -0.0501
     12 O1         14.6010   38.1410   37.4320 O.co2     1 AAN        -0.2595
     13 O2         13.5040   38.7610   35.8060 O.co2     1 AAN        -0.2595
     14 H1         13.5823   35.7426   36.9279 H         1 AAN         0.0654
     15 H2         14.8493   35.9633   35.6738 H         1 AAN         0.0654
     16 H3         13.9256   37.2105   33.4609 H         1 AAN         0.0576
     17 H4         12.0049   37.0525   31.8760 H         1 AAN         0.0674
     18 H5          9.8748   34.4049   34.5150 H         1 AAN         0.0674
     19 H6         11.6730   34.8281   36.2107 H         1 AAN         0.0576
@<TRIPOS>BOND
     1    1   13 ar 
     2    1   12 ar 
     3    1    2 1  
     4    2    3 1  
     5    3   11 ar 
     6    3    4 ar 
     7    4    5 ar 
     8    5    6 ar 
     9    6   10 ar 
    10    6    7 1  
    11    7    9 2  
    12    7    8 2  
    13   10   11 ar 
    14    2   14 1  
    15    2   15 1  
    16    4   16 1  
    17    5   17 1  
    18   10   18 1  
    19   11   19 1  
@<TRIPOS>SUBSTRUCTURE
     1 AAN         1

