### 
### Created by X-TOOL on Mon Sep 10 21:12:45 2018
### 

@<TRIPOS>MOLECULE
1ajp_ligand
   19    19     1     0     0
SMALL
GAST_HUCK


@<TRIPOS>ATOM
      1 C1         13.5720   37.5200   36.1010 C.2       1 OMD         0.0444
      2 C2         13.0180   36.1080   35.8570 C.3       1 OMD         0.0295
      3 C1'        11.9820   36.0200   34.7630 C.ar      1 OMD        -0.0093
      4 C2'        12.0720   36.8510   33.6510 C.ar      1 OMD        -0.0385
      5 C3'        11.1100   36.7580   32.6730 C.ar      1 OMD         0.0700
      6 O3'        11.0650   37.5080   31.5210 O.3       1 OMD        -0.3420
      7 C4'        10.0380   35.8730   32.7310 C.ar      1 OMD        -0.0487
      8 C5'         9.9510   35.0620   33.8310 C.ar      1 OMD        -0.0479
      9 C6'        10.9200   35.1270   34.8110 C.ar      1 OMD         0.0796
     10 O6'        10.7660   34.4250   35.6340 O.3       1 OMD        -0.3439
     11 O1         14.4340   37.7030   36.9520 O.co2     1 OMD        -0.5667
     12 O2         13.1420   38.5030   35.4930 O.co2     1 OMD        -0.5667
     13 H1         12.5605   35.7526   36.7921 H         1 OMD         0.0564
     14 H2         13.8584   35.4515   35.5872 H         1 OMD         0.0564
     15 H3         12.8867   37.5598   33.5571 H         1 OMD         0.0456
     16 H4         10.2559   38.0055   31.4997 H         1 OMD         0.2443
     17 H5          9.3012   35.8273   31.9372 H         1 OMD         0.0459
     18 H6          9.1224   34.3703   33.9316 H         1 OMD         0.0496
     19 H7         11.4662   34.5240   36.2684 H         1 OMD         0.2420
@<TRIPOS>BOND
     1    1   12 ar 
     2    1   11 ar 
     3    1    2 1  
     4    2    3 1  
     5    3    9 ar 
     6    3    4 ar 
     7    4    5 ar 
     8    5    7 ar 
     9    5    6 1  
    10    7    8 ar 
    11    8    9 ar 
    12    9   10 1  
    13    2   13 1  
    14    2   14 1  
    15    4   15 1  
    16    6   16 1  
    17    7   17 1  
    18    8   18 1  
    19   10   19 1  
@<TRIPOS>SUBSTRUCTURE
     1 OMD         1

