### 
### Created by X-TOOL on Mon Sep 10 21:12:45 2018
### 

@<TRIPOS>MOLECULE
1ajv_ligand
   75    79     1     0     0
SMALL
GAST_HUCK


@<TRIPOS>ATOM
      1 N01        11.2880   23.4910    5.8630 N.am      1 NMB        -0.2024
      2 S02        11.7520   21.9940    6.4090 S.o2      1 NMB         0.1248
      3 N03        13.3390   22.0510    6.1430 N.am      1 NMB        -0.2024
      4 C04        13.7180   21.8820    4.7150 C.3       1 NMB         0.1002
      5 C05        13.8660   23.2220    4.0190 C.3       1 NMB         0.1054
      6 C06        12.9640   24.3140    4.5500 C.3       1 NMB         0.1054
      7 C07        11.4700   24.0310    4.5340 C.3       1 NMB         0.1002
      8 C08        10.0970   23.9500    6.4360 C.3       1 NMB         0.0650
      9 C09         9.7590   25.1350    7.2730 C.ar      1 NMB        -0.0243
     10 C10         8.5260   25.7840    7.1410 C.ar      1 NMB        -0.0588
     11 C11         8.2300   26.8970    7.9290 C.ar      1 NMB        -0.0685
     12 C12         9.1850   27.3780    8.8690 C.ar      1 NMB        -0.0687
     13 C13        10.4310   26.7390    9.0090 C.ar      1 NMB        -0.0685
     14 C14        10.7160   25.6130    8.2060 C.ar      1 NMB        -0.0588
     15 O15        11.1950   20.9190    5.6210 O.2       1 NMB        -0.1349
     16 O16        14.7620   20.0210    3.5210 O.3       1 NMB        -0.3160
     17 C17        15.7580   19.1500    3.2110 C.ar      1 NMB         0.0912
     18 C18        16.6850   18.7520    4.1980 C.ar      1 NMB        -0.0331
     19 C19        17.7110   17.8480    3.8820 C.ar      1 NMB        -0.0706
     20 C20        17.8040   17.3340    2.5690 C.ar      1 NMB        -0.0729
     21 C21        16.8800   17.7260    1.5850 C.ar      1 NMB        -0.0706
     22 C22        15.8660   18.6320    1.9120 C.ar      1 NMB        -0.0331
     23 C23        14.1990   22.6960    7.1600 C.3       1 NMB         0.0650
     24 C24        15.1850   21.8560    7.9250 C.ar      1 NMB        -0.0243
     25 C25        14.7480   20.9690    8.9400 C.ar      1 NMB        -0.0588
     26 C26        15.6870   20.1700    9.6510 C.ar      1 NMB        -0.0685
     27 C27        17.0610   20.2600    9.3460 C.ar      1 NMB        -0.0687
     28 C28        17.4950   21.1470    8.3360 C.ar      1 NMB        -0.0685
     29 C29        16.5580   21.9380    7.6310 C.ar      1 NMB        -0.0588
     30 O30        15.1850   23.6960    4.1710 O.3       1 NMB        -0.3872
     31 O31        13.2820   25.4920    3.8480 O.3       1 NMB        -0.3872
     32 C32        10.8120   23.1390    3.4660 C.3       1 NMB         0.0929
     33 O33         9.3880   23.2350    3.7130 O.3       1 NMB        -0.3160
     34 C34         8.6380   24.0960    2.9990 C.ar      1 NMB         0.0912
     35 C35         9.1860   25.2970    2.5060 C.ar      1 NMB        -0.0331
     36 C36         8.4120   26.2030    1.7670 C.ar      1 NMB        -0.0706
     37 C37         7.0650   25.9140    1.5160 C.ar      1 NMB        -0.0729
     38 C38         6.5070   24.7220    2.0070 C.ar      1 NMB        -0.0706
     39 C39         7.2990   23.8160    2.7450 C.ar      1 NMB        -0.0331
     40 O40        11.5630   21.9660    7.8210 O.2       1 NMB        -0.1349
     41 C41        14.9800   21.0170    4.5480 C.3       1 NMB         0.0929
     42 H1         12.8924   21.3480    4.2219 H         1 NMB         0.0570
     43 H2         13.6473   23.0744    2.9511 H         1 NMB         0.0640
     44 H3         13.2329   24.4666    5.6056 H         1 NMB         0.0640
     45 H4         10.9556   25.0003    4.4575 H         1 NMB         0.0570
     46 H5          9.7722   23.1019    7.0566 H         1 NMB         0.0642
     47 H6          9.4238   24.0511    5.5720 H         1 NMB         0.0642
     48 H7          7.7985   25.4208    6.4242 H         1 NMB         0.0557
     49 H8          7.2729   27.3954    7.8254 H         1 NMB         0.0599
     50 H9          8.9509   28.2418    9.4807 H         1 NMB         0.0559
     51 H10        11.1606   27.1055    9.7221 H         1 NMB         0.0599
     52 H11        11.6716   25.1105    8.3027 H         1 NMB         0.0557
     53 H12        16.6042   19.1463    5.2045 H         1 NMB         0.0542
     54 H13        18.4261   17.5466    4.6388 H         1 NMB         0.0589
     55 H14        18.5925   16.6333    2.3192 H         1 NMB         0.0523
     56 H15        16.9529   17.3286    0.5791 H         1 NMB         0.0589
     57 H16        15.1552   18.9375    1.1527 H         1 NMB         0.0542
     58 H17        13.5299   23.1601    7.8996 H         1 NMB         0.0642
     59 H18        14.7750   23.4787    6.6446 H         1 NMB         0.0642
     60 H19        13.6924   20.8986    9.1763 H         1 NMB         0.0557
     61 H20        15.3465   19.4930   10.4261 H         1 NMB         0.0599
     62 H21        17.7798   19.6521    9.8835 H         1 NMB         0.0559
     63 H22        18.5504   21.2218    8.1002 H         1 NMB         0.0599
     64 H23        16.9015   22.6141    6.8564 H         1 NMB         0.0557
     65 H24        15.2713   24.5348    3.7333 H         1 NMB         0.2100
     66 H25        14.1948   25.7102    3.9949 H         1 NMB         0.2100
     67 H26        11.1519   22.0981    3.5705 H         1 NMB         0.0634
     68 H27        11.0535   23.5041    2.4569 H         1 NMB         0.0634
     69 H28        10.2274   25.5251    2.7021 H         1 NMB         0.0542
     70 H29         8.8529   27.1199    1.3929 H         1 NMB         0.0589
     71 H30         6.4562   26.6064    0.9459 H         1 NMB         0.0523
     72 H31         5.4635   24.4969    1.8183 H         1 NMB         0.0589
     73 H32         6.8612   22.8964    3.1161 H         1 NMB         0.0542
     74 H33        15.2070   20.5153    5.5002 H         1 NMB         0.0634
     75 H34        15.8263   21.6582    4.2604 H         1 NMB         0.0634
@<TRIPOS>BOND
     1    1    8 1  
     2    1    7 1  
     3    1    2 am 
     4    2   40 2  
     5    2   15 2  
     6    2    3 am 
     7    3   23 1  
     8    3    4 1  
     9    4   41 1  
    10    4    5 1  
    11    5   30 1  
    12    5    6 1  
    13    6   31 1  
    14    6    7 1  
    15    7   32 1  
    16   32   33 1  
    17   33   34 1  
    18   34   39 ar 
    19   34   35 ar 
    20   35   36 ar 
    21   36   37 ar 
    22   37   38 ar 
    23   38   39 ar 
    24   41   16 1  
    25   16   17 1  
    26   17   22 ar 
    27   17   18 ar 
    28   18   19 ar 
    29   19   20 ar 
    30   20   21 ar 
    31   21   22 ar 
    32   23   24 1  
    33   24   29 ar 
    34   24   25 ar 
    35   25   26 ar 
    36   26   27 ar 
    37   27   28 ar 
    38   28   29 ar 
    39    8    9 1  
    40    9   14 ar 
    41    9   10 ar 
    42   10   11 ar 
    43   11   12 ar 
    44   12   13 ar 
    45   13   14 ar 
    46    4   42 1  
    47    5   43 1  
    48    6   44 1  
    49    7   45 1  
    50    8   46 1  
    51    8   47 1  
    52   10   48 1  
    53   11   49 1  
    54   12   50 1  
    55   13   51 1  
    56   14   52 1  
    57   18   53 1  
    58   19   54 1  
    59   20   55 1  
    60   21   56 1  
    61   22   57 1  
    62   23   58 1  
    63   23   59 1  
    64   25   60 1  
    65   26   61 1  
    66   27   62 1  
    67   28   63 1  
    68   29   64 1  
    69   30   65 1  
    70   31   66 1  
    71   32   67 1  
    72   32   68 1  
    73   35   69 1  
    74   36   70 1  
    75   37   71 1  
    76   38   72 1  
    77   39   73 1  
    78   41   74 1  
    79   41   75 1  
@<TRIPOS>SUBSTRUCTURE
     1 NMB         1

