### 
### Created by X-TOOL on Mon Sep 10 21:12:45 2018
### 

@<TRIPOS>MOLECULE
1al7_ligand
   44    44     1     0     0
SMALL
GAST_HUCK


@<TRIPOS>ATOM
      1 N1         47.0180   53.0920   19.9480 N.pl3     1 HST        -0.1681
      2 N2         47.4880   53.6560   21.0750 N.2       1 HST        -0.1056
      3 N3         48.2280   54.7350   20.7700 N.2       1 HST        -0.2252
      4 CB1        47.4680   53.8400   18.8920 C.2       1 HST         0.1661
      5 CB2        48.2410   54.8740   19.3950 C.2       1 HST         0.1022
      6 CB3        49.2300   55.7830   18.6680 C.2       1 HST         0.0533
      7 O1         49.9400   56.5930   19.2470 O.co2     1 HST        -0.5709
      8 O2         49.0570   55.8320   17.3220 O.co2     1 HST        -0.5709
      9 S          46.7560   53.8760   17.2990 S.3       1 HST        -0.0537
     10 C1         44.2430   58.3890   13.6330 C.3       1 HST        -0.0653
     11 C2         45.0680   57.1010   13.7820 C.3       1 HST        -0.0559
     12 C3         44.7280   56.2790   15.0390 C.3       1 HST        -0.0533
     13 C4         44.8490   57.0740   16.3570 C.3       1 HST        -0.0519
     14 C5         45.4970   56.2620   17.4910 C.3       1 HST        -0.0385
     15 C6         45.1820   54.7540   17.4800 C.3       1 HST         0.0240
     16 C7         44.4670   54.1980   18.7400 C.3       1 HST        -0.0385
     17 C8         44.2220   55.2430   19.8460 C.3       1 HST        -0.0519
     18 C9         42.7500   55.2870   20.2900 C.3       1 HST        -0.0533
     19 C10        42.5450   55.0110   21.7890 C.3       1 HST        -0.0559
     20 C11        41.3780   54.0590   22.0950 C.3       1 HST        -0.0653
     21 H1         46.4270   52.2505   19.8895 H         1 HST         0.2680
     22 H2         44.5458   58.9142   12.7151 H         1 HST         0.0230
     23 H3         44.4185   59.0395   14.5025 H         1 HST         0.0230
     24 H4         43.1743   58.1352   13.5746 H         1 HST         0.0230
     25 H5         46.1323   57.3755   13.8261 H         1 HST         0.0263
     26 H6         44.8881   56.4712   12.8983 H         1 HST         0.0263
     27 H7         45.4142   55.4207   15.0879 H         1 HST         0.0265
     28 H8         43.6935   55.9166   14.9467 H         1 HST         0.0265
     29 H9         43.8415   57.3794   16.6760 H         1 HST         0.0266
     30 H10        45.4619   57.9685   16.1719 H         1 HST         0.0266
     31 H11        45.1477   56.6757   18.4485 H         1 HST         0.0278
     32 H12        46.5878   56.3824   17.4156 H         1 HST         0.0278
     33 H13        44.5415   54.5473   16.6100 H         1 HST         0.0443
     34 H14        45.0866   53.3918   19.1596 H         1 HST         0.0278
     35 H15        43.4936   53.7894   18.4311 H         1 HST         0.0278
     36 H16        44.5066   56.2349   19.4651 H         1 HST         0.0266
     37 H17        44.8466   54.9911   20.7157 H         1 HST         0.0266
     38 H18        42.1927   54.5300   19.7187 H         1 HST         0.0265
     39 H19        42.3492   56.2860   20.0634 H         1 HST         0.0265
     40 H20        42.3515   55.9689   22.2939 H         1 HST         0.0263
     41 H21        43.4683   54.5660   22.1883 H         1 HST         0.0263
     42 H22        41.2986   53.9140   23.1825 H         1 HST         0.0230
     43 H23        41.5584   53.0893   21.6080 H         1 HST         0.0230
     44 H24        40.4416   54.4923   21.7136 H         1 HST         0.0230
@<TRIPOS>BOND
     1    1    2 1  
     2    4    1 1  
     3    3    2 2  
     4    5    3 1  
     5    4    5 2  
     6    9    4 1  
     7    5    6 1  
     8    6    7 ar 
     9    6    8 ar 
    10   15    9 1  
    11   11   10 1  
    12   12   11 1  
    13   13   12 1  
    14   14   13 1  
    15   14   15 1  
    16   15   16 1  
    17   16   17 1  
    18   17   18 1  
    19   18   19 1  
    20   19   20 1  
    21    1   21 1  
    22   10   22 1  
    23   10   23 1  
    24   10   24 1  
    25   11   25 1  
    26   11   26 1  
    27   12   27 1  
    28   12   28 1  
    29   13   29 1  
    30   13   30 1  
    31   14   31 1  
    32   14   32 1  
    33   15   33 1  
    34   16   34 1  
    35   16   35 1  
    36   17   36 1  
    37   17   37 1  
    38   18   38 1  
    39   18   39 1  
    40   19   40 1  
    41   19   41 1  
    42   20   42 1  
    43   20   43 1  
    44   20   44 1  
@<TRIPOS>SUBSTRUCTURE
     1 HST         1

