### 
### Created by X-TOOL on Mon Sep 10 21:12:46 2018
### 

@<TRIPOS>MOLECULE
1al8_ligand
   41    41     1     0     0
SMALL
GAST_HUCK


@<TRIPOS>ATOM
      1 N1         24.3430   71.5920   -4.9150 N.am      1 DHP        -0.2016
      2 C1         24.5940   71.4280   -7.0310 C.2       1 DHP         0.1764
      3 O3         24.9670   71.1230   -8.1090 O.3       1 DHP        -0.3261
      4 C2         25.0730   71.0360   -5.8620 C.2       1 DHP         0.2638
      5 O2         26.1220   70.2170   -5.5960 O.2       1 DHP        -0.3624
      6 C3         23.4580   72.4250   -5.5130 C.2       1 DHP         0.2208
      7 O1         22.8420   73.0620   -4.3450 O.2       1 DHP        -0.3766
      8 C4         23.5260   72.2910   -6.8530 C.2       1 DHP         0.0648
      9 C5         22.6320   72.9080   -7.9440 C.3       1 DHP        -0.0177
     10 C6         23.2680   74.1170   -8.6570 C.3       1 DHP        -0.0459
     11 C7         22.3660   74.6850   -9.7710 C.3       1 DHP        -0.0516
     12 C8         22.2790   73.7670  -11.0050 C.3       1 DHP        -0.0529
     13 C9         22.5100   74.5270  -12.3220 C.3       1 DHP        -0.0531
     14 C10        22.6420   73.5990  -13.5460 C.3       1 DHP        -0.0531
     15 C11        24.0440   73.6590  -14.1820 C.3       1 DHP        -0.0531
     16 C12        24.0060   73.7420  -15.7190 C.3       1 DHP        -0.0533
     17 C13        24.3820   72.4130  -16.3980 C.3       1 DHP        -0.0559
     18 C14        25.7620   72.4990  -17.1330 C.3       1 DHP        -0.0653
     19 H1         24.4276   71.4281   -3.9321 H         1 DHP         0.2186
     20 H2         24.4335   71.5595   -8.7627 H         1 DHP         0.2494
     21 H3         21.6912   73.2357   -7.4776 H         1 DHP         0.0389
     22 H4         22.4184   72.1344   -8.6963 H         1 DHP         0.0389
     23 H5         24.2231   73.8019   -9.1024 H         1 DHP         0.0284
     24 H6         23.4526   74.9076   -7.9148 H         1 DHP         0.0284
     25 H7         22.7701   75.6582  -10.0865 H         1 DHP         0.0267
     26 H8         21.3530   74.8227   -9.3651 H         1 DHP         0.0267
     27 H9         21.2798   73.3078  -11.0333 H         1 DHP         0.0265
     28 H10        23.0419   72.9798  -10.9136 H         1 DHP         0.0265
     29 H11        23.4349   75.1150  -12.2283 H         1 DHP         0.0265
     30 H12        21.6597   75.2048  -12.4878 H         1 DHP         0.0265
     31 H13        21.8995   73.9007  -14.2994 H         1 DHP         0.0265
     32 H14        22.4426   72.5650  -13.2282 H         1 DHP         0.0265
     33 H15        24.5984   72.7537  -13.8938 H         1 DHP         0.0265
     34 H16        24.5659   74.5471  -13.7961 H         1 DHP         0.0265
     35 H17        24.7147   74.5168  -16.0467 H         1 DHP         0.0265
     36 H18        22.9885   74.0203  -16.0308 H         1 DHP         0.0265
     37 H19        23.6041   72.1569  -17.1323 H         1 DHP         0.0263
     38 H20        24.4364   71.6257  -15.6317 H         1 DHP         0.0263
     39 H21        25.9887   71.5301  -17.6018 H         1 DHP         0.0230
     40 H22        26.5495   72.7480  -16.4065 H         1 DHP         0.0230
     41 H23        25.7172   73.2792  -17.9071 H         1 DHP         0.0230
@<TRIPOS>BOND
     1    4    1 am 
     2    1    6 am 
     3    2    3 1  
     4    2    4 1  
     5    2    8 2  
     6    4    5 2  
     7    6    7 2  
     8    6    8 1  
     9    8    9 1  
    10    9   10 1  
    11   10   11 1  
    12   11   12 1  
    13   12   13 1  
    14   13   14 1  
    15   14   15 1  
    16   15   16 1  
    17   16   17 1  
    18   17   18 1  
    19    1   19 1  
    20    3   20 1  
    21    9   21 1  
    22    9   22 1  
    23   10   23 1  
    24   10   24 1  
    25   11   25 1  
    26   11   26 1  
    27   12   27 1  
    28   12   28 1  
    29   13   29 1  
    30   13   30 1  
    31   14   31 1  
    32   14   32 1  
    33   15   33 1  
    34   15   34 1  
    35   16   35 1  
    36   16   36 1  
    37   17   37 1  
    38   17   38 1  
    39   18   39 1  
    40   18   40 1  
    41   18   41 1  
@<TRIPOS>SUBSTRUCTURE
     1 DHP         1

