### 
### Created by X-TOOL on Mon Sep 10 21:12:45 2018
### 

@<TRIPOS>MOLECULE
1amn_ligand
   32    32     1     0     0
SMALL
GAST_HUCK


@<TRIPOS>ATOM
      1 C1          4.2960   67.6090   63.5630 C.ar      1 NAF         0.0410
      2 C2          4.9600   66.8170   62.5800 C.ar      1 NAF         0.0168
      3 C3          5.0040   65.3880   62.7360 C.ar      1 NAF         0.0284
      4 C4          4.4600   64.7860   63.9260 C.ar      1 NAF        -0.0256
      5 C5          3.8390   65.5310   64.9080 C.ar      1 NAF        -0.0193
      6 C6          3.7140   66.9180   64.7460 C.ar      1 NAF         0.0152
      7 C1'         5.5830   64.5170   61.6060 C.3       1 NAF         0.2569
      8 O1'         4.3880   64.4710   61.0300 O.3       1 NAF        -0.3951
      9 O2'         6.6010   65.1840   60.8300 O.3       1 NAF        -0.3951
     10 C2'         5.9730   63.0760   62.0100 C.3       1 NAF         0.4183
     11 F1'         4.9480   62.3530   62.7050 F         1 NAF        -0.1732
     12 F2'         7.1910   63.1660   62.7590 F         1 NAF        -0.1732
     13 F3'         6.2580   62.2570   60.9110 F         1 NAF        -0.1732
     14 N1          4.0930   68.9740   63.3730 N.4       1 NAF         0.3817
     15 CM1         4.1310   69.5470   64.7080 C.3       1 NAF        -0.0431
     16 CM2         2.7870   69.3860   62.8310 C.3       1 NAF        -0.0431
     17 CM3         4.8130   69.6890   62.2570 C.3       1 NAF        -0.0431
     18 H1          5.4274   67.2881   61.7228 H         1 NAF         0.0983
     19 H2          4.5409   63.7127   64.0546 H         1 NAF         0.0924
     20 H3          3.4511   65.0476   65.7973 H         1 NAF         0.0727
     21 H4          3.1849   67.4966   65.4945 H         1 NAF         0.0955
     22 H5          4.4535   64.0060   60.2041 H         1 NAF         0.1988
     23 H6          7.4209   65.1737   61.3097 H         1 NAF         0.1988
     24 H7          3.9770   70.6343   64.6448 H         1 NAF         0.0633
     25 H8          5.1090   69.3414   65.1676 H         1 NAF         0.0633
     26 H9          3.3358   69.0991   65.3220 H         1 NAF         0.0633
     27 H10         2.6723   68.9909   61.8108 H         1 NAF         0.0633
     28 H11         2.7297   70.4842   62.8074 H         1 NAF         0.0633
     29 H12         1.9836   68.9905   63.4698 H         1 NAF         0.0633
     30 H13         5.8987   69.5636   62.3816 H         1 NAF         0.0633
     31 H14         4.5620   70.7596   62.2853 H         1 NAF         0.0633
     32 H15         4.5035   69.2652   61.2902 H         1 NAF         0.0633
@<TRIPOS>BOND
     1    1    2 ar 
     2    1    6 ar 
     3    1   14 1  
     4    2    3 ar 
     5    3    4 ar 
     6    3    7 1  
     7    4    5 ar 
     8    5    6 ar 
     9    7    8 1  
    10    7    9 1  
    11    7   10 1  
    12   10   11 1  
    13   10   12 1  
    14   10   13 1  
    15   14   15 1  
    16   14   16 1  
    17   14   17 1  
    18    2   18 1  
    19    4   19 1  
    20    5   20 1  
    21    6   21 1  
    22    8   22 1  
    23    9   23 1  
    24   15   24 1  
    25   15   25 1  
    26   15   26 1  
    27   16   27 1  
    28   16   28 1  
    29   16   29 1  
    30   17   30 1  
    31   17   31 1  
    32   17   32 1  
@<TRIPOS>SUBSTRUCTURE
     1 NAF         1

