### 
### Created by X-TOOL on Fri Nov 18 12:08:37 2016
### 

@<TRIPOS>MOLECULE
1anf_ligand
   45    46     1     0     0
SMALL
GAST_HUCK


@<TRIPOS>ATOM
      1 C1         11.3820   15.5960   41.1810 C.3       1 MOL         0.1884
      2 C2         10.6860   16.0920   42.4640 C.3       1 MOL         0.1341
      3 C3         10.2520   17.5280   42.3090 C.3       1 MOL         0.1141
      4 C4         11.4890   18.3650   41.8450 C.3       1 MOL         0.1119
      5 C5         12.1020   17.8100   40.5770 C.3       1 MOL         0.1130
      6 C6         13.4220   18.4800   40.3150 C.3       1 MOL         0.0730
      7 O2          9.5900   15.2330   42.8480 O.3       1 MOL        -0.3841
      8 O3          9.7560   18.1050   43.5280 O.3       1 MOL        -0.3864
      9 O4         11.1360   19.7490   41.6240 O.3       1 MOL        -0.3865
     10 O5         12.4060   16.4200   40.8060 O.3       1 MOL        -0.3405
     11 O6         13.9080   18.1910   38.9310 O.3       1 MOL        -0.3924
     12 C1          8.5370   13.1410   37.4360 C.3       1 MOL         0.1854
     13 C2          8.6570   12.6250   38.8660 C.3       1 MOL         0.1339
     14 C3          8.9460   13.7530   39.8190 C.3       1 MOL         0.1144
     15 C4         10.1450   14.5230   39.3600 C.3       1 MOL         0.1184
     16 C5          9.8470   15.1610   37.9650 C.3       1 MOL         0.1134
     17 C6         11.1090   15.8230   37.3730 C.3       1 MOL         0.0730
     18 O1          7.3430   13.7470   37.2600 O.3       1 MOL        -0.3649
     19 O2          7.4300   12.0310   39.2450 O.3       1 MOL        -0.3841
     20 O3          9.2530   13.1490   41.0940 O.3       1 MOL        -0.3864
     21 O4         10.3170   15.6750   40.2450 O.3       1 MOL        -0.3401
     22 O5          9.3520   14.1830   37.0850 O.3       1 MOL        -0.3407
     23 O6         10.5830   16.5420   36.2380 O.3       1 MOL        -0.3924
     24 H1         11.7542   14.5671   41.2940 H         1 MOL         0.0938
     25 H2         11.4266   16.0570   43.2766 H         1 MOL         0.0671
     26 H3          9.4611   17.5780   41.5462 H         1 MOL         0.0648
     27 H4         12.2445   18.3213   42.6433 H         1 MOL         0.0647
     28 H5         11.4172   17.9379   39.7258 H         1 MOL         0.0647
     29 H6         14.1623   18.1107   41.0399 H         1 MOL         0.0584
     30 H7         13.3029   19.5670   40.4340 H         1 MOL         0.0584
     31 H8          9.2346   15.5271   43.6785 H         1 MOL         0.2101
     32 H9         10.4371   18.0785   44.1897 H         1 MOL         0.2100
     33 H10        10.5100   19.8051   40.9116 H         1 MOL         0.2100
     34 H11        13.2738   18.5116   38.3005 H         1 MOL         0.2095
     35 H12         8.6750   12.2938   36.7481 H         1 MOL         0.0935
     36 H13         9.4658   11.8814   38.9194 H         1 MOL         0.0671
     37 H14         8.0756   14.4205   39.9012 H         1 MOL         0.0648
     38 H15        11.0392   13.8829   39.3355 H         1 MOL         0.0651
     39 H16         9.0780   15.9367   38.0952 H         1 MOL         0.0647
     40 H17        11.8438   15.0672   37.0586 H         1 MOL         0.0584
     41 H18        11.5746   16.5085   38.0964 H         1 MOL         0.0584
     42 H19         7.2608   14.0255   36.3555 H         1 MOL         0.2126
     43 H20         7.5006   11.6998   40.1326 H         1 MOL         0.2101
     44 H21         9.4634   13.8292   41.7229 H         1 MOL         0.2100
     45 H22        10.1725   15.9294   35.6391 H         1 MOL         0.2095
@<TRIPOS>BOND
     1    1    2 1  
     2    1   10 1  
     3   21    1 1  
     4    2    3 1  
     5    2    7 1  
     6    3    4 1  
     7    3    8 1  
     8    5    4 1  
     9    4    9 1  
    10    5    6 1  
    11   10    5 1  
    12    6   11 1  
    13   13   12 1  
    14   12   18 1  
    15   12   22 1  
    16   14   13 1  
    17   13   19 1  
    18   15   14 1  
    19   14   20 1  
    20   15   16 1  
    21   15   21 1  
    22   16   17 1  
    23   16   22 1  
    24   17   23 1  
    25    1   24 1  
    26    2   25 1  
    27    3   26 1  
    28    4   27 1  
    29    5   28 1  
    30    6   29 1  
    31    6   30 1  
    32    7   31 1  
    33    8   32 1  
    34    9   33 1  
    35   11   34 1  
    36   12   35 1  
    37   13   36 1  
    38   14   37 1  
    39   15   38 1  
    40   16   39 1  
    41   17   40 1  
    42   17   41 1  
    43   18   42 1  
    44   19   43 1  
    45   20   44 1  
    46   23   45 1  
@<TRIPOS>SUBSTRUCTURE
     1 MOL         1

