### 
### Created by X-TOOL on Mon Sep 10 21:12:46 2018
### 

@<TRIPOS>MOLECULE
1ao8_ligand
   55    57     1     0     0
SMALL
GAST_HUCK


@<TRIPOS>ATOM
      1 N1        127.6620    0.7230    7.1290 N.pl3     1 MTX        -0.1525
      2 C2        127.6170   -0.3910    6.3580 C.cat     1 MTX         0.2322
      3 NA2       127.1380   -1.5570    6.9320 N.pl3     1 MTX        -0.3315
      4 N3        128.0110   -0.4400    5.0510 N.pl3     1 MTX        -0.2894
      5 C4        128.4900    0.6980    4.4550 C.cat     1 MTX         0.1822
      6 NA4       128.8950    0.6710    3.1310 N.pl3     1 MTX        -0.3407
      7 C4A       128.5660    1.9020    5.2010 C.ar      1 MTX         0.2941
      8 N5        129.0450    3.0830    4.6370 N.ar      1 MTX        -0.0849
      9 C6        129.1030    4.2190    5.3880 C.ar      1 MTX         0.2567
     10 C7        128.6820    4.2130    6.7330 C.ar      1 MTX         0.2114
     11 N8        128.2080    3.0780    7.3200 N.ar      1 MTX        -0.0606
     12 C8A       128.1360    1.8990    6.5800 C.ar      1 MTX         0.3793
     13 C9        129.6210    5.4750    4.7520 C.3       1 MTX         0.1666
     14 N10       130.1940    6.4240    5.6980 N.pl3     1 MTX        -0.2615
     15 CM        129.5000    7.6780    5.9630 C.3       1 MTX         0.0259
     16 C11       133.8680    5.5580    7.6710 C.ar      1 MTX         0.0362
     17 C12       132.8900    6.3580    8.3130 C.ar      1 MTX        -0.0534
     18 C13       131.6660    6.6470    7.6580 C.ar      1 MTX        -0.0374
     19 C14       131.4140    6.1340    6.3520 C.ar      1 MTX         0.0537
     20 C15       132.4030    5.3280    5.7110 C.ar      1 MTX        -0.0374
     21 C16       133.6250    5.0440    6.3710 C.ar      1 MTX        -0.0534
     22 C         135.1290    5.2640    8.3490 C.2       1 MTX         0.1968
     23 O         135.6940    6.0220    9.1360 O.2       1 MTX        -0.3908
     24 N         135.6800    4.0580    8.0590 N.am      1 MTX        -0.2725
     25 CA        136.9380    3.6810    8.6900 C.3       1 MTX         0.0951
     26 CT        137.6470    2.6230    7.8380 C.2       1 MTX         0.0601
     27 O1        137.0000    2.0490    6.9630 O.co2     1 MTX        -0.5666
     28 O2        138.8690    2.5190    7.9380 O.co2     1 MTX        -0.5666
     29 CB        136.6760    3.1480   10.0970 C.3       1 MTX        -0.0064
     30 CG        137.9320    3.3400   10.9440 C.3       1 MTX         0.0038
     31 CD        137.5430    3.6260   12.3950 C.2       1 MTX         0.0350
     32 OE1       136.6670    2.9370   12.9140 O.co2     1 MTX        -0.5690
     33 OE2       138.1440    4.5130   13.0000 O.co2     1 MTX        -0.5690
     34 H1        127.3476    0.6933    8.1094 H         1 MTX         0.3040
     35 H2        127.0896   -2.4226    6.3759 H         1 MTX         0.1741
     36 H3        126.8302   -1.5584    7.9149 H         1 MTX         0.1741
     37 H4        127.9490   -1.3205    4.5201 H         1 MTX         0.1994
     38 H5        129.2546    1.5269    2.6849 H         1 MTX         0.1749
     39 H6        128.8366   -0.2050    2.5923 H         1 MTX         0.1749
     40 H7        128.7362    5.1282    7.3114 H         1 MTX         0.1765
     41 H8        128.7877    5.9675    4.2294 H         1 MTX         0.1235
     42 H9        130.3985    5.1994    4.0244 H         1 MTX         0.1235
     43 H10       130.0719    8.2657    6.6962 H         1 MTX         0.0488
     44 H11       128.4985    7.4650    6.3649 H         1 MTX         0.0488
     45 H12       129.4059    8.2497    5.0280 H         1 MTX         0.0488
     46 H13       133.0779    6.7495    9.3062 H         1 MTX         0.0636
     47 H14       130.9201    7.2595    8.1515 H         1 MTX         0.0530
     48 H15       132.2192    4.9328    4.7185 H         1 MTX         0.0530
     49 H16       134.3750    4.4331    5.8817 H         1 MTX         0.0636
     50 H17       135.2280    3.4357    7.4199 H         1 MTX         0.1864
     51 H18       137.5823    4.5696    8.7618 H         1 MTX         0.0726
     52 H19       136.4262    2.0780   10.0453 H         1 MTX         0.0323
     53 H20       135.8383    3.6987   10.5498 H         1 MTX         0.0323
     54 H21       138.5127    4.1864   10.5486 H         1 MTX         0.0432
     55 H22       138.5424    2.4258   10.9036 H         1 MTX         0.0432
@<TRIPOS>BOND
     1    1    2 ar 
     2   12    1 1  
     3    2    3 ar 
     4    4    2 ar 
     5    5    4 ar 
     6    5    6 ar 
     7    7    5 1  
     8    8    7 ar 
     9    7   12 ar 
    10    9    8 ar 
    11    9   10 ar 
    12   13    9 1  
    13   10   11 ar 
    14   11   12 ar 
    15   14   13 1  
    16   14   15 1  
    17   19   14 1  
    18   17   16 ar 
    19   16   21 ar 
    20   16   22 1  
    21   18   17 ar 
    22   18   19 ar 
    23   19   20 ar 
    24   20   21 ar 
    25   22   23 2  
    26   22   24 am 
    27   24   25 1  
    28   25   26 1  
    29   25   29 1  
    30   26   27 ar 
    31   26   28 ar 
    32   29   30 1  
    33   30   31 1  
    34   31   32 ar 
    35   31   33 ar 
    36    1   34 1  
    37    3   35 1  
    38    3   36 1  
    39    4   37 1  
    40    6   38 1  
    41    6   39 1  
    42   10   40 1  
    43   13   41 1  
    44   13   42 1  
    45   15   43 1  
    46   15   44 1  
    47   15   45 1  
    48   17   46 1  
    49   18   47 1  
    50   20   48 1  
    51   21   49 1  
    52   24   50 1  
    53   25   51 1  
    54   29   52 1  
    55   29   53 1  
    56   30   54 1  
    57   30   55 1  
@<TRIPOS>SUBSTRUCTURE
     1 MTX         1

