### 
### Created by X-TOOL on Mon Sep 10 21:12:44 2018
### 

@<TRIPOS>MOLECULE
1apb_ligand
   23    23     1     0     0
SMALL
GAST_HUCK


@<TRIPOS>ATOM
      1 C1         14.2590   56.4290   55.0020 C.3       1 FCB         0.1853
      2 C2         12.8940   56.9600   54.6440 C.3       1 FCB         0.1339
      3 C3         12.4620   56.2850   53.3440 C.3       1 FCB         0.1140
      4 C4         13.4770   56.4860   52.2310 C.3       1 FCB         0.1095
      5 C5         14.8130   55.9620   52.7210 C.3       1 FCB         0.0873
      6 C6         15.8950   56.1350   51.6700 C.3       1 FCB        -0.0361
      7 O1         14.8690   57.0610   56.1230 O.3       1 FCB        -0.3649
      8 O2         11.8910   56.6950   55.6320 O.3       1 FCB        -0.3841
      9 O3         11.1250   56.6440   52.9780 O.3       1 FCB        -0.3864
     10 O4         13.4710   57.8220   51.7090 O.3       1 FCB        -0.3866
     11 O5         15.1850   56.6440   53.9280 O.3       1 FCB        -0.3433
     12 H1         14.1609   55.3522   55.2039 H         1 FCB         0.0935
     13 H2         12.9651   58.0478   54.4968 H         1 FCB         0.0671
     14 H3         12.4429   55.2039   53.5462 H         1 FCB         0.0648
     15 H4         13.1752   55.8399   51.3935 H         1 FCB         0.0646
     16 H5         14.7085   54.8889   52.9388 H         1 FCB         0.0621
     17 H6         16.8480   55.7456   52.0574 H         1 FCB         0.0255
     18 H7         16.0057   57.2028   51.4300 H         1 FCB         0.0255
     19 H8         15.6153   55.5819   50.7612 H         1 FCB         0.0255
     20 H9         15.7120   56.6571   56.2929 H         1 FCB         0.2126
     21 H10        11.0587   57.0468   55.3390 H         1 FCB         0.2101
     22 H11        10.5451   56.4946   53.7154 H         1 FCB         0.2100
     23 H12        12.5909   58.0488   51.4324 H         1 FCB         0.2100
@<TRIPOS>BOND
     1    1    2 1  
     2    1    7 1  
     3    1   11 1  
     4    2    3 1  
     5    2    8 1  
     6    3    4 1  
     7    3    9 1  
     8    4    5 1  
     9    4   10 1  
    10    5    6 1  
    11    5   11 1  
    12    1   12 1  
    13    2   13 1  
    14    3   14 1  
    15    4   15 1  
    16    5   16 1  
    17    6   17 1  
    18    6   18 1  
    19    6   19 1  
    20    7   20 1  
    21    8   21 1  
    22    9   22 1  
    23   10   23 1  
@<TRIPOS>SUBSTRUCTURE
     1 FCB         1

