### 
### Created by X-TOOL on Mon Sep 10 21:12:45 2018
### 

@<TRIPOS>MOLECULE
1apv_ligand
   80    79     1     0     0
SMALL
GAST_HUCK


@<TRIPOS>ATOM
      1 CA         16.0190    4.5530   17.9340 C.3       1 IVA         0.0397
      2 CB         14.7990    3.9160   18.5820 C.3       1 IVA        -0.0298
      3 CG1        14.3210    4.9180   19.6410 C.3       1 IVA        -0.0606
      4 CG2        13.7190    3.6180   17.5740 C.3       1 IVA        -0.0606
      5 C          17.1300    4.8030   18.9660 C.2       1 IVA         0.1785
      6 O          17.1600    4.1620   20.0510 O.2       1 IVA        -0.3969
      7 N          18.0000    5.7030   18.5940 N.am      1 VAL        -0.2654
      8 CA         19.1740    6.0020   19.4660 C.3       1 VAL         0.1332
      9 C          19.0780    7.3870   20.1050 C.2       1 VAL         0.2042
     10 O          18.2360    8.1860   19.6660 O.2       1 VAL        -0.3944
     11 CB         20.4050    5.8710   18.5450 C.3       1 VAL        -0.0063
     12 CG1        20.5140    4.4980   17.8720 C.3       1 VAL        -0.0584
     13 CG2        20.3940    6.9660   17.4880 C.3       1 VAL        -0.0584
     14 N          19.9330    7.5290   21.0860 N.am      1 VAL        -0.2635
     15 CA         19.9710    8.8400   21.8490 C.3       1 VAL         0.1331
     16 C          21.4750    9.1630   22.0480 C.2       1 VAL         0.2023
     17 O          22.0280    8.5270   22.9380 O.2       1 VAL        -0.3945
     18 CB         19.2190    8.7390   23.1690 C.3       1 VAL        -0.0063
     19 CG1        19.1830   10.1550   23.8360 C.3       1 VAL        -0.0584
     20 CG2        17.8090    8.2400   23.1190 C.3       1 VAL        -0.0584
     21 N          22.0060   10.0660   21.2120 N.am      1 DFO        -0.2768
     22 CA         23.4390   10.3800   21.3090 C.3       1 DFO         0.1008
     23 CB         24.0620    9.9190   19.9650 C.3       1 DFO        -0.0225
     24 CG         23.7960    8.4950   19.5250 C.3       1 DFO        -0.0445
     25 CD1        24.3870    8.2280   18.1500 C.3       1 DFO        -0.0626
     26 CD2        24.4460    7.4540   20.4830 C.3       1 DFO        -0.0626
     27 CH         23.6380   11.8880   21.5110 C.3       1 DFO         0.2610
     28 OH         22.8910   12.6110   20.4760 O.3       1 DFO        -0.3594
     29 CM         23.2280   12.4820   22.8930 C.3       1 DFO         0.3772
     30 C          24.3170   12.1080   23.9700 C.2       1 DFO         0.2705
     31 O          24.3070   11.0000   24.5350 O.2       1 DFO        -0.3382
     32 OH1        25.0190   12.1230   21.4170 O.3       1 DFO        -0.3594
     33 F1         22.0750   11.9820   23.2420 F         1 DFO        -0.1946
     34 F2         23.1050   13.8100   22.8380 F         1 DFO        -0.1946
     35 N          25.1930   13.0570   24.1750 N.am      1 NME        -0.2842
     36 CH3        26.3230   12.9170   25.1300 C.3       1 NME         0.0198
     37 H1         15.7258    5.5125   17.4830 H         1 IVA         0.0505
     38 H2         16.4012    3.8814   17.1511 H         1 IVA         0.0505
     39 H3         15.0899    2.9735   19.0690 H         1 IVA         0.0320
     40 H4         13.4336    4.5161   20.1519 H         1 IVA         0.0234
     41 H5         14.0641    5.8707   19.1549 H         1 IVA         0.0234
     42 H6         15.1225    5.0855   20.3755 H         1 IVA         0.0234
     43 H7         14.0974    2.8983   16.8332 H         1 IVA         0.0234
     44 H8         13.4257    4.5480   17.0650 H         1 IVA         0.0234
     45 H9         12.8456    3.1901   18.0880 H         1 IVA         0.0234
     46 H10        17.8802    6.1898   17.7287 H         1 VAL         0.1883
     47 H11        19.2349    5.2552   20.2713 H         1 VAL         0.0802
     48 H12        21.3005    6.0066   19.1693 H         1 VAL         0.0343
     49 H13        21.4090    4.4730   17.2329 H         1 VAL         0.0234
     50 H14        19.6195    4.3188   17.2574 H         1 VAL         0.0234
     51 H15        20.5919    3.7170   18.6427 H         1 VAL         0.0234
     52 H16        20.3156    7.9477   17.9779 H         1 VAL         0.0234
     53 H17        19.5335    6.8207   16.8184 H         1 VAL         0.0234
     54 H18        21.3249    6.9211   16.9038 H         1 VAL         0.0234
     55 H19        20.5531    6.7832   21.3294 H         1 VAL         0.1883
     56 H20        19.5036    9.6321   21.2456 H         1 VAL         0.0802
     57 H21        19.7878    8.0520   23.8128 H         1 VAL         0.0343
     58 H22        18.6418   10.0964   24.7919 H         1 VAL         0.0234
     59 H23        18.6706   10.8624   23.1674 H         1 VAL         0.0234
     60 H24        20.2112   10.5011   24.0175 H         1 VAL         0.0234
     61 H25        17.7892    7.2428   22.6551 H         1 VAL         0.0234
     62 H26        17.1956    8.9331   22.5246 H         1 VAL         0.0234
     63 H27        17.4058    8.1772   24.1405 H         1 VAL         0.0234
     64 H28        21.4338   10.5212   20.5298 H         1 DFO         0.1856
     65 H29        23.8955    9.8351   22.1484 H         1 DFO         0.0610
     66 H30        25.1521   10.0403   20.0480 H         1 DFO         0.0292
     67 H31        23.6778   10.5845   19.1779 H         1 DFO         0.0292
     68 H32        22.7078    8.3369   19.4969 H         1 DFO         0.0296
     69 H33        24.1788    7.1884   17.8570 H         1 DFO         0.0232
     70 H34        25.4746    8.3894   18.1807 H         1 DFO         0.0232
     71 H35        23.9352    8.9129   17.4174 H         1 DFO         0.0232
     72 H36        24.0548    7.5982   21.5009 H         1 DFO         0.0232
     73 H37        25.5375    7.5907   20.4869 H         1 DFO         0.0232
     74 H38        24.2050    6.4377   20.1381 H         1 DFO         0.0232
     75 H39        23.0426   13.5440   20.5711 H         1 DFO         0.2128
     76 H40        25.3310   11.8351   20.5671 H         1 DFO         0.2128
     77 H41        25.0985   13.9135   23.6675 H         1 NME         0.1855
     78 H42        26.9201   13.8409   25.1295 H         1 NME         0.0485
     79 H43        26.9568   12.0707   24.8266 H         1 NME         0.0485
     80 H44        25.9286   12.7359   26.1408 H         1 NME         0.0485
@<TRIPOS>BOND
     1    8    7 1  
     2    8   11 1  
     3    9    8 1  
     4    9   10 2  
     5   11   13 1  
     6   11   12 1  
     7   15   14 1  
     8   15   18 1  
     9   16   15 1  
    10   16   17 2  
    11   18   20 1  
    12   18   19 1  
    13   14    9 am 
    14   35   36 1  
    15    1    2 1  
    16    5    1 1  
    17    2    3 1  
    18    2    4 1  
    19    5    6 2  
    20    7    5 am 
    21   21   16 am 
    22   22   21 1  
    23   22   23 1  
    24   27   22 1  
    25   23   24 1  
    26   24   25 1  
    27   24   26 1  
    28   27   28 1  
    29   29   27 1  
    30   27   32 1  
    31   30   29 1  
    32   29   33 1  
    33   29   34 1  
    34   30   31 2  
    35   30   35 am 
    36    1   37 1  
    37    1   38 1  
    38    2   39 1  
    39    3   40 1  
    40    3   41 1  
    41    3   42 1  
    42    4   43 1  
    43    4   44 1  
    44    4   45 1  
    45    7   46 1  
    46    8   47 1  
    47   11   48 1  
    48   12   49 1  
    49   12   50 1  
    50   12   51 1  
    51   13   52 1  
    52   13   53 1  
    53   13   54 1  
    54   14   55 1  
    55   15   56 1  
    56   18   57 1  
    57   19   58 1  
    58   19   59 1  
    59   19   60 1  
    60   20   61 1  
    61   20   62 1  
    62   20   63 1  
    63   21   64 1  
    64   22   65 1  
    65   23   66 1  
    66   23   67 1  
    67   24   68 1  
    68   25   69 1  
    69   25   70 1  
    70   25   71 1  
    71   26   72 1  
    72   26   73 1  
    73   26   74 1  
    74   28   75 1  
    75   32   76 1  
    76   35   77 1  
    77   36   78 1  
    78   36   79 1  
    79   36   80 1  
@<TRIPOS>SUBSTRUCTURE
     1 IVA         1

