### 
### Created by X-TOOL on Mon Sep 10 21:12:45 2018
### 

@<TRIPOS>MOLECULE
1apw_ligand
   79    78     1     0     0
SMALL
GAST_HUCK


@<TRIPOS>ATOM
      1 CA         16.0840    4.4610   17.7960 C.3       1 IVA         0.0397
      2 CB         14.8430    3.8580   18.4520 C.3       1 IVA        -0.0298
      3 CG1        14.3540    4.8740   19.4690 C.3       1 IVA        -0.0606
      4 CG2        13.7470    3.5900   17.4470 C.3       1 IVA        -0.0606
      5 C          17.2070    4.7150   18.8020 C.2       1 IVA         0.1785
      6 O          17.2750    4.0360   19.8570 O.2       1 IVA        -0.3969
      7 N          18.0800    5.6360   18.4920 N.am      1 VAL        -0.2654
      8 CA         19.2180    5.9090   19.3990 C.3       1 VAL         0.1332
      9 C          19.1120    7.2860   20.0730 C.2       1 VAL         0.2042
     10 O          18.2720    8.0860   19.6240 O.2       1 VAL        -0.3944
     11 CB         20.4700    5.7770   18.4920 C.3       1 VAL        -0.0063
     12 CG1        20.5610    4.4210   17.7960 C.3       1 VAL        -0.0584
     13 CG2        20.4440    6.8290   17.3790 C.3       1 VAL        -0.0584
     14 N          19.9740    7.4100   21.0550 N.am      1 VAL        -0.2635
     15 CA         20.0420    8.6950   21.8260 C.3       1 VAL         0.1331
     16 C          21.5340    9.0230   21.9350 C.2       1 VAL         0.2022
     17 O          22.1540    8.4020   22.8160 O.2       1 VAL        -0.3945
     18 CB         19.3120    8.6400   23.1800 C.3       1 VAL        -0.0063
     19 CG1        19.2610   10.0270   23.8480 C.3       1 VAL        -0.0584
     20 CG2        17.9070    8.1110   23.0550 C.3       1 VAL        -0.0584
     21 N          22.0560    9.9170   21.0780 N.am      1 DFI        -0.2795
     22 CA         23.4740   10.2430   21.0960 C.3       1 DFI         0.0730
     23 CB         24.1080    9.7490   19.7650 C.3       1 DFI        -0.0251
     24 CG         23.8560    8.2980   19.4030 C.3       1 DFI        -0.0446
     25 CD1        24.4200    8.0080   17.9990 C.3       1 DFI        -0.0626
     26 CD2        24.4870    7.3210   20.4130 C.3       1 DFI        -0.0626
     27 CH         23.7370   11.7430   21.2650 C.3       1 DFI         0.1485
     28 OH         22.8880   12.5040   20.3570 O.3       1 DFI        -0.3846
     29 CM         23.4880   12.3710   22.6610 C.3       1 DFI         0.3504
     30 C          24.5910   11.9540   23.6870 C.2       1 DFI         0.2677
     31 O          24.5680   10.8510   24.2720 O.2       1 DFI        -0.3383
     32 F1         22.3150   11.9820   23.1560 F         1 DFI        -0.1977
     33 F2         23.3830   13.7150   22.6590 F         1 DFI        -0.1977
     34 N          25.5250   12.8650   23.8560 N.am      1 NME        -0.2843
     35 CH3        26.6620   12.6360   24.8010 C.3       1 NME         0.0198
     36 H1         15.8070    5.4164   17.3265 H         1 IVA         0.0505
     37 H2         16.4498    3.7663   17.0256 H         1 IVA         0.0505
     38 H3         15.1100    2.9163   18.9538 H         1 IVA         0.0320
     39 H4         13.4564    4.4859   19.9726 H         1 IVA         0.0234
     40 H5         14.1087    5.8163   18.9572 H         1 IVA         0.0234
     41 H6         15.1426    5.0558   20.2140 H         1 IVA         0.0234
     42 H7         14.0984    2.8541   16.7088 H         1 IVA         0.0234
     43 H8         13.4828    4.5265   16.9340 H         1 IVA         0.0234
     44 H9         12.8619    3.1942   17.9665 H         1 IVA         0.0234
     45 H10        17.9799    6.1558   17.6436 H         1 VAL         0.1883
     46 H11        19.2532    5.1452   20.1898 H         1 VAL         0.0802
     47 H12        21.3643    5.9223   19.1158 H         1 VAL         0.0343
     48 H13        21.4655    4.3898   17.1708 H         1 VAL         0.0234
     49 H14        19.6730    4.2730   17.1639 H         1 VAL         0.0234
     50 H15        20.6101    3.6234   18.5519 H         1 VAL         0.0234
     51 H16        20.3785    7.8326   17.8246 H         1 VAL         0.0234
     52 H17        19.5708    6.6573   16.7324 H         1 VAL         0.0234
     53 H18        21.3640    6.7528   16.7808 H         1 VAL         0.0234
     54 H19        20.5825    6.6515   21.2881 H         1 VAL         0.1883
     55 H20        19.5552    9.4838   21.2337 H         1 VAL         0.0802
     56 H21        19.8767    7.9606   23.8354 H         1 VAL         0.0343
     57 H22        18.7340    9.9512   24.8106 H         1 VAL         0.0234
     58 H23        18.7272   10.7305   23.1922 H         1 VAL         0.0234
     59 H24        20.2853   10.3898   24.0184 H         1 VAL         0.0234
     60 H25        17.9295    7.1197   22.5788 H         1 VAL         0.0234
     61 H26        17.3092    8.7997   22.4399 H         1 VAL         0.0234
     62 H27        17.4564    8.0273   24.0550 H         1 VAL         0.0234
     63 H28        21.4580   10.3671   20.4148 H         1 DFI         0.1855
     64 H29        23.9435    9.7134   21.9381 H         1 DFI         0.0582
     65 H30        25.1961    9.8930   19.8375 H         1 DFI         0.0291
     66 H31        23.7090   10.3723   18.9512 H         1 DFI         0.0291
     67 H32        22.7690    8.1299   19.3919 H         1 DFI         0.0296
     68 H33        24.2354    6.9550   17.7400 H         1 DFI         0.0232
     69 H34        25.5025    8.2031   17.9912 H         1 DFI         0.0232
     70 H35        23.9248    8.6587   17.2633 H         1 DFI         0.0232
     71 H36        24.0876    7.5237   21.4177 H         1 DFI         0.0232
     72 H37        25.5789    7.4540   20.4188 H         1 DFI         0.0232
     73 H38        24.2450    6.2876   20.1239 H         1 DFI         0.0232
     74 H39        24.7925   11.9114   21.0051 H         1 DFI         0.0663
     75 H40        23.0581   13.4319   20.4691 H         1 DFI         0.2099
     76 H41        25.4742   13.7232   23.3452 H         1 NME         0.1855
     77 H42        27.3262   13.5128   24.7947 H         1 NME         0.0485
     78 H43        27.2267   11.7460   24.4864 H         1 NME         0.0485
     79 H44        26.2691   12.4810   25.8167 H         1 NME         0.0485
@<TRIPOS>BOND
     1    8    7 1  
     2    8   11 1  
     3    9    8 1  
     4    9   10 2  
     5   11   13 1  
     6   11   12 1  
     7   15   14 1  
     8   15   18 1  
     9   16   15 1  
    10   16   17 2  
    11   18   20 1  
    12   18   19 1  
    13   14    9 am 
    14   34   35 1  
    15    1    2 1  
    16    5    1 1  
    17    2    3 1  
    18    2    4 1  
    19    5    6 2  
    20    7    5 am 
    21   21   16 am 
    22   22   21 1  
    23   22   23 1  
    24   27   22 1  
    25   23   24 1  
    26   24   25 1  
    27   24   26 1  
    28   27   28 1  
    29   29   27 1  
    30   30   29 1  
    31   29   32 1  
    32   29   33 1  
    33   30   31 2  
    34   30   34 am 
    35    1   36 1  
    36    1   37 1  
    37    2   38 1  
    38    3   39 1  
    39    3   40 1  
    40    3   41 1  
    41    4   42 1  
    42    4   43 1  
    43    4   44 1  
    44    7   45 1  
    45    8   46 1  
    46   11   47 1  
    47   12   48 1  
    48   12   49 1  
    49   12   50 1  
    50   13   51 1  
    51   13   52 1  
    52   13   53 1  
    53   14   54 1  
    54   15   55 1  
    55   18   56 1  
    56   19   57 1  
    57   19   58 1  
    58   19   59 1  
    59   20   60 1  
    60   20   61 1  
    61   20   62 1  
    62   21   63 1  
    63   22   64 1  
    64   23   65 1  
    65   23   66 1  
    66   24   67 1  
    67   25   68 1  
    68   25   69 1  
    69   25   70 1  
    70   26   71 1  
    71   26   72 1  
    72   26   73 1  
    73   27   74 1  
    74   28   75 1  
    75   34   76 1  
    76   35   77 1  
    77   35   78 1  
    78   35   79 1  
@<TRIPOS>SUBSTRUCTURE
     1 IVA         1

