### 
### Created by X-TOOL on Mon Sep 10 21:12:46 2018
### 

@<TRIPOS>MOLECULE
1aq1_ligand
   60    67     1     0     0
SMALL
GAST_HUCK


@<TRIPOS>ATOM
      1 O4         -0.0580   24.6050    8.9150 O.3       1 STU        -0.3144
      2 C25         1.3300   24.6420    8.6200 C.3       1 STU         0.1695
      3 C24         2.1900   24.1630    9.8170 C.3       1 STU         0.0460
      4 C23         1.2850   23.8640   11.0150 C.3       1 STU         0.0142
      5 C22         0.3990   25.1070   11.3170 C.3       1 STU         0.1556
      6 C21        -0.5830   25.1790   10.1000 C.3       1 STU         0.2022
      7 C26        -1.7820   24.3150   10.4450 C.3       1 STU        -0.0059
      8 N2         -1.0180   26.5730    9.8090 N.pl3     1 STU        -0.2262
      9 C18        -0.2490   27.3530    8.9070 C.ar      1 STU         0.1108
     10 C19         0.8600   27.1010    8.2060 C.ar      1 STU         0.1125
     11 C6          1.4780   28.0810    7.3700 C.ar      1 STU         0.0157
     12 C7          0.7740   29.3740    7.3290 C.ar      1 STU         0.0411
     13 C10        -0.3120   29.6130    8.0170 C.ar      1 STU         0.0073
     14 C11        -0.9010   28.6450    8.8630 C.ar      1 STU         0.0099
     15 C12        -2.0370   28.5990    9.7020 C.ar      1 STU        -0.0005
     16 C17        -2.1080   27.3050   10.3030 C.ar      1 STU         0.0725
     17 C16        -3.1120   27.0110   11.1730 C.ar      1 STU        -0.0387
     18 C15        -4.0610   27.9440   11.4680 C.ar      1 STU        -0.0719
     19 C14        -4.0150   29.2500   10.8950 C.ar      1 STU        -0.0736
     20 C13        -2.9870   29.5370   10.0290 C.ar      1 STU        -0.0664
     21 C9         -0.7870   31.0610    7.7940 C.2       1 STU         0.0167
     22 N1          0.2460   31.4880    6.8730 N.2       1 STU        -0.2626
     23 C8          1.1910   30.5900    6.5600 C.2       1 STU         0.2093
     24 O5          2.1450   30.7330    5.8200 O.2       1 STU        -0.3303
     25 C5          2.6460   27.5280    6.8110 C.ar      1 STU         0.0002
     26 C20         2.7410   26.1970    7.3090 C.ar      1 STU         0.0732
     27 C1          3.7550   25.3170    6.9230 C.ar      1 STU        -0.0386
     28 C2          4.7040   25.7920    6.0470 C.ar      1 STU        -0.0721
     29 C3          4.6280   27.1160    5.5550 C.ar      1 STU        -0.0738
     30 C4          3.6100   27.9460    5.9210 C.ar      1 STU        -0.0666
     31 N3          1.7090   25.9710    8.1520 N.pl3     1 STU        -0.2281
     32 O6          1.2830   26.2450   11.2960 O.3       1 STU        -0.3686
     33 C27         0.7080   27.3650   11.9400 C.3       1 STU         0.0373
     34 N4          2.1900   23.5100   12.2490 N.4       1 STU         0.2291
     35 C28         2.2190   22.0360   12.4640 C.3       1 STU        -0.0445
     36 H1          1.5108   23.9394    7.7931 H         1 STU         0.0939
     37 H2          2.9087   24.9500   10.0891 H         1 STU         0.0373
     38 H3          2.7351   23.2505    9.5338 H         1 STU         0.0373
     39 H4          0.6361   23.0068   10.7821 H         1 STU         0.0880
     40 H5         -0.1357   25.0265   12.2749 H         1 STU         0.0710
     41 H6         -2.2551   24.6941   11.3629 H         1 STU         0.0284
     42 H7         -1.4528   23.2775   10.6038 H         1 STU         0.0284
     43 H8         -2.5072   24.3472    9.6185 H         1 STU         0.0284
     44 H9         -3.1574   26.0307   11.6335 H         1 STU         0.0544
     45 H10        -4.8645   27.6894   12.1497 H         1 STU         0.0577
     46 H11        -4.7673   29.9926   11.1352 H         1 STU         0.0521
     47 H12        -2.9239   30.5275    9.5931 H         1 STU         0.0585
     48 H13        -1.6400   31.5998    8.2040 H         1 STU         0.1090
     49 H14         3.7927   24.3008    7.2985 H         1 STU         0.0544
     50 H15         5.5159   25.1467    5.7316 H         1 STU         0.0575
     51 H16         5.3918   27.4768    4.8757 H         1 STU         0.0521
     52 H17         3.5590   28.9464    5.5066 H         1 STU         0.0583
     53 H18         1.4111   28.2102   11.9030 H         1 STU         0.0524
     54 H19         0.4916   27.1138   12.9888 H         1 STU         0.0524
     55 H20        -0.2258   27.6423   11.4291 H         1 STU         0.0524
     56 H21         1.8199   23.9587   13.0722 H         1 STU         0.2014
     57 H22         3.1273   23.8396   12.0792 H         1 STU         0.2014
     58 H23         2.8559   21.8043   13.3304 H         1 STU         0.0777
     59 H24         2.6246   21.5427   11.5684 H         1 STU         0.0777
     60 H25         1.1979   21.6727   12.6520 H         1 STU         0.0777
@<TRIPOS>BOND
     1    1    6 1  
     2    1    2 1  
     3    2   31 1  
     4    2    3 1  
     5    3    4 1  
     6    4   34 1  
     7    4    5 1  
     8    5   32 1  
     9    5    6 1  
    10    6    8 1  
    11    6    7 1  
    12    8   16 1  
    13    8    9 1  
    14    9   14 ar 
    15    9   10 ar 
    16   10   31 1  
    17   10   11 ar 
    18   11   25 1  
    19   11   12 ar 
    20   12   23 1  
    21   12   13 ar 
    22   13   21 1  
    23   13   14 ar 
    24   14   15 1  
    25   15   20 ar 
    26   15   16 ar 
    27   16   17 ar 
    28   17   18 ar 
    29   18   19 ar 
    30   19   20 ar 
    31   21   22 2  
    32   22   23 1  
    33   23   24 2  
    34   25   30 ar 
    35   25   26 ar 
    36   26   31 1  
    37   26   27 ar 
    38   27   28 ar 
    39   28   29 ar 
    40   29   30 ar 
    41   32   33 1  
    42   34   35 1  
    43    2   36 1  
    44    3   37 1  
    45    3   38 1  
    46    4   39 1  
    47    5   40 1  
    48    7   41 1  
    49    7   42 1  
    50    7   43 1  
    51   17   44 1  
    52   18   45 1  
    53   19   46 1  
    54   20   47 1  
    55   21   48 1  
    56   27   49 1  
    57   28   50 1  
    58   29   51 1  
    59   30   52 1  
    60   33   53 1  
    61   33   54 1  
    62   33   55 1  
    63   34   56 1  
    64   34   57 1  
    65   35   58 1  
    66   35   59 1  
    67   35   60 1  
@<TRIPOS>SUBSTRUCTURE
     1 STU         1

