### 
### Created by X-TOOL on Mon Sep 10 21:12:46 2018
### 

@<TRIPOS>MOLECULE
1aq7_ligand
   92    94     1     0     0
SMALL
GAST_HUCK


@<TRIPOS>ATOM
      1 C1         11.5750   14.6890   12.1690 C.ar      1 34H         0.0805
      2 C2         12.9620   14.6010   11.5010 C.ar      1 34H        -0.0398
      3 C3         13.9330   15.6110   11.7460 C.ar      1 34H        -0.0685
      4 C4         13.6520   16.7070   12.6200 C.ar      1 34H        -0.0490
      5 C5         12.3740   16.8710   13.2400 C.ar      1 34H        -0.0685
      6 C6         11.3160   15.9390   13.0700 C.ar      1 34H        -0.0398
      7 C11        14.7950   17.6910   12.9580 C.3       1 34H         0.0193
      8 C12        15.2150   18.5120   11.7800 C.3       1 34H         0.1516
      9 C15        16.5350   19.2400   12.0350 C.2       1 34H         0.2090
     10 O16        14.1830   19.4170   11.6090 O.3       1 34H        -0.3695
     11 O17        17.3550   18.8140   12.8620 O.2       1 34H        -0.3939
     12 N18        16.7080   20.3510   11.3210 N.am      1 DIL        -0.2631
     13 C19        18.0870   20.7870   11.1980 C.3       1 DIL         0.1337
     14 C20        18.2050   22.3420   11.2020 C.3       1 DIL        -0.0037
     15 C21        19.3450   22.9340   10.3930 C.3       1 DIL        -0.0491
     16 C22        16.9390   23.1500   11.3070 C.3       1 DIL        -0.0582
     17 C23        19.1760   24.3770    9.8970 C.3       1 DIL        -0.0648
     18 C29        18.8040   20.0140   10.0580 C.2       1 DIL         0.2069
     19 O31        18.2080   19.6580    9.0360 O.2       1 DIL        -0.3942
     20 N32        20.1080   19.7640   10.2930 N.am      1 XPR        -0.2464
     21 C33        20.8920   20.0840   11.5050 C.3       1 XPR         0.0533
     22 C34        22.3560   20.2330   10.9820 C.3       1 XPR        -0.0132
     23 C35        22.3950   19.2430    9.7860 C.3       1 XPR        -0.0073
     24 C36        20.9720   19.1490    9.2620 C.3       1 XPR         0.1342
     25 C37        20.7810   18.9380   12.5420 C.3       1 XPR        -0.0005
     26 C39        21.9030   18.9810   13.5970 C.3       1 XPR         0.0919
     27 C42        23.2430   18.7970   12.8690 C.3       1 XPR        -0.0238
     28 C43        23.4750   20.0080   11.9760 C.3       1 XPR        -0.0455
     29 O49        21.8500   20.1940   14.3890 O.3       1 XPR        -0.2124
     30 S51        22.6060   20.5130   15.7520 S.o2      1 XPR         0.2078
     31 O52        23.8750   20.9440   15.3450 O.2       1 XPR        -0.1181
     32 O53        22.9770   19.2080   16.5050 O.3       1 XPR        -0.2311
     33 O54        21.7650   21.3400   16.5750 O.2       1 XPR        -0.1181
     34 C55        20.5070   17.6910    9.0040 C.2       1 XPR         0.2019
     35 O56        20.0270   16.9380    9.8730 O.2       1 XPR        -0.3945
     36 N57        20.6860   17.3780    7.7190 N.am      1 AG2        -0.2851
     37 C58        20.1850   16.1050    7.1600 C.3       1 AG2         0.0311
     38 C59        19.1140   16.2860    6.0920 C.3       1 AG2        -0.0296
     39 C62        17.8100   16.8870    6.5690 C.3       1 AG2        -0.0180
     40 C65        16.9070   17.1060    5.3550 C.3       1 AG2         0.0626
     41 N68        15.5430   17.3860    5.6720 N.pl3     1 AG2        -0.2723
     42 C71        14.6770   17.5670    4.6780 C.cat     1 AG2         0.2882
     43 N72        15.0840   17.5040    3.4110 N.pl3     1 AG2        -0.2849
     44 N73        13.3940   17.8360    4.9570 N.pl3     1 AG2        -0.2849
     45 O74        10.7520   13.8120   11.9520 O.3       1 34H        -0.3376
     46 H1         13.1968   13.7703   10.8454 H         1 34H         0.0525
     47 H2         14.9012   15.5488   11.2625 H         1 34H         0.0530
     48 H3         12.2061   17.7410   13.8644 H         1 34H         0.0530
     49 H4         10.3566   16.0904   13.5513 H         1 34H         0.0525
     50 H5         15.6623   17.1150   13.3130 H         1 34H         0.0455
     51 H6         14.4531   18.3677   13.7550 H         1 34H         0.0455
     52 H7         15.3221   17.8754   10.8894 H         1 34H         0.0858
     53 H8         14.0908   19.9427   12.3949 H         1 34H         0.2135
     54 H9         15.9469   20.8463   10.9022 H         1 DIL         0.1884
     55 H10        18.5924   20.4657   12.1207 H         1 DIL         0.0803
     56 H11        18.5994   22.4932   12.2176 H         1 DIL         0.0345
     57 H12        19.4909   22.2951    9.5095 H         1 DIL         0.0267
     58 H13        20.2476   22.9032   11.0209 H         1 DIL         0.0267
     59 H14        16.2049   22.6036   11.9174 H         1 DIL         0.0235
     60 H15        16.5268   23.3182   10.3011 H         1 DIL         0.0235
     61 H16        17.1602   24.1185   11.7793 H         1 DIL         0.0235
     62 H17        20.0693   24.6765    9.3292 H         1 DIL         0.0230
     63 H18        19.0472   25.0483   10.7588 H         1 DIL         0.0230
     64 H19        18.2905   24.4402    9.2475 H         1 DIL         0.0230
     65 H20        20.5441   21.0234   11.9594 H         1 XPR         0.0564
     66 H21        22.4826   21.2582   10.6038 H         1 XPR         0.0325
     67 H22        22.7433   18.2548   10.1210 H         1 XPR         0.0316
     68 H23        23.0656   19.6213    9.0004 H         1 XPR         0.0316
     69 H24        20.8951   19.7134    8.3210 H         1 XPR         0.0802
     70 H25        20.8340   17.9762   12.0108 H         1 XPR         0.0313
     71 H26        19.8117   19.0205   13.0555 H         1 XPR         0.0313
     72 H27        21.7667   18.1329   14.2841 H         1 XPR         0.0621
     73 H28        24.0571   18.7162   13.6043 H         1 XPR         0.0291
     74 H29        23.2104   17.8842   12.2561 H         1 XPR         0.0291
     75 H30        23.5634   20.9009   12.6123 H         1 XPR         0.0270
     76 H31        24.4127   19.8593   11.4205 H         1 XPR         0.0270
     77 H32        22.1851   18.7220   16.7031 H         1 XPR         0.2469
     78 H33        21.1693   18.0183    7.1219 H         1 AG2         0.1851
     79 H34        19.7600   15.5084    7.9807 H         1 AG2         0.0520
     80 H35        21.0325   15.5639    6.7140 H         1 AG2         0.0520
     81 H36        18.8939   15.2975    5.6625 H         1 AG2         0.0286
     82 H37        19.5233   16.9427    5.3102 H         1 AG2         0.0286
     83 H38        18.0041   17.8490    7.0659 H         1 AG2         0.0300
     84 H39        17.3214   16.2008    7.2764 H         1 AG2         0.0300
     85 H40        16.9359   16.1964    4.7372 H         1 AG2         0.0689
     86 H41        17.3063   17.9536    4.7787 H         1 AG2         0.0689
     87 H42        15.2349   17.4468    6.6530 H         1 AG2         0.2642
     88 H43        14.4092   17.6449    2.6457 H         1 AG2         0.2615
     89 H44        16.0735   17.3144    3.1967 H         1 AG2         0.2615
     90 H45        13.0792   17.8847    5.9365 H         1 AG2         0.2615
     91 H46        12.7228   17.9940    4.1919 H         1 AG2         0.2615
     92 H47         9.9874   14.1927   11.5361 H         1 34H         0.2458
@<TRIPOS>BOND
     1    1   45 1  
     2    1    6 ar 
     3    1    2 ar 
     4    2    3 ar 
     5    3    4 ar 
     6    4    7 1  
     7    4    5 ar 
     8    5    6 ar 
     9    7    8 1  
    10    8   10 1  
    11    8    9 1  
    12    9   12 am 
    13    9   11 2  
    14   12   13 1  
    15   13   18 1  
    16   13   14 1  
    17   14   16 1  
    18   14   15 1  
    19   15   17 1  
    20   18   20 am 
    21   18   19 2  
    22   20   24 1  
    23   20   21 1  
    24   21   25 1  
    25   21   22 1  
    26   22   28 1  
    27   22   23 1  
    28   23   24 1  
    29   24   34 1  
    30   34   36 am 
    31   34   35 2  
    32   36   37 1  
    33   37   38 1  
    34   38   39 1  
    35   39   40 1  
    36   40   41 1  
    37   41   42 ar 
    38   42   44 ar 
    39   42   43 ar 
    40   28   27 1  
    41   27   26 1  
    42   26   29 1  
    43   26   25 1  
    44   29   30 1  
    45   30   33 2  
    46   30   32 1  
    47   30   31 2  
    48    2   46 1  
    49    3   47 1  
    50    5   48 1  
    51    6   49 1  
    52    7   50 1  
    53    7   51 1  
    54    8   52 1  
    55   10   53 1  
    56   12   54 1  
    57   13   55 1  
    58   14   56 1  
    59   15   57 1  
    60   15   58 1  
    61   16   59 1  
    62   16   60 1  
    63   16   61 1  
    64   17   62 1  
    65   17   63 1  
    66   17   64 1  
    67   21   65 1  
    68   22   66 1  
    69   23   67 1  
    70   23   68 1  
    71   24   69 1  
    72   25   70 1  
    73   25   71 1  
    74   26   72 1  
    75   27   73 1  
    76   27   74 1  
    77   28   75 1  
    78   28   76 1  
    79   32   77 1  
    80   36   78 1  
    81   37   79 1  
    82   37   80 1  
    83   38   81 1  
    84   38   82 1  
    85   39   83 1  
    86   39   84 1  
    87   40   85 1  
    88   40   86 1  
    89   41   87 1  
    90   43   88 1  
    91   43   89 1  
    92   44   90 1  
    93   44   91 1  
    94   45   92 1  
@<TRIPOS>SUBSTRUCTURE
     1 34H         1

