### 
### Created by X-TOOL on Mon Sep 10 21:12:46 2018
### 

@<TRIPOS>MOLECULE
1aqi_ligand
   46    48     1     0     0
SMALL
GAST_HUCK


@<TRIPOS>ATOM
      1 N          35.0980   37.2760   16.3730 N.4       1 SAH         0.2327
      2 CA         35.3680   38.1320   15.2250 C.3       1 SAH         0.0291
      3 CB         36.5500   39.0800   15.5150 C.3       1 SAH         0.0114
      4 CG         37.8990   38.4090   15.7750 C.3       1 SAH         0.0005
      5 SD         39.2560   39.5610   16.1130 S.3       1 SAH        -0.1578
      6 C          35.6260   37.3000   13.9700 C.2       1 SAH         0.0844
      7 O          35.2830   36.0990   13.9790 O.co2     1 SAH        -0.5643
      8 OXT        36.1650   37.8490   12.9900 O.co2     1 SAH        -0.5643
      9 C5         40.6340   39.3230   14.9780 C.3       1 SAH         0.0226
     10 C4         41.9160   40.0280   15.4140 C.3       1 SAH         0.0995
     11 O4         42.7480   39.1230   16.1830 O.3       1 SAH        -0.3383
     12 C3         42.7300   40.4690   14.2070 C.3       1 SAH         0.1132
     13 O3         43.2890   41.7710   14.4440 O.3       1 SAH        -0.3864
     14 C2         43.8370   39.4570   14.1000 C.3       1 SAH         0.1385
     15 O2         45.0400   40.0680   13.6340 O.3       1 SAH        -0.3836
     16 C1         44.0060   38.9220   15.5010 C.3       1 SAH         0.2009
     17 N9         44.3670   37.5030   15.4740 N.pl3     1 SAH        -0.1919
     18 C8         43.8860   36.5110   14.6920 C.2       1 SAH         0.1123
     19 N7         44.3970   35.3390   14.8500 N.2       1 SAH        -0.2958
     20 C5         45.3340   35.5600   15.8580 C.ar      1 SAH         0.1045
     21 C6         46.2170   34.7030   16.5250 C.ar      1 SAH         0.1298
     22 N6         46.3490   33.4060   16.2090 N.pl3     1 SAH        -0.3152
     23 N1         46.9830   35.2430   17.5000 N.ar      1 SAH        -0.2698
     24 C2         46.8690   36.5460   17.7720 C.ar      1 SAH         0.0533
     25 N3         46.0790   37.4550   17.2110 N.ar      1 SAH        -0.2714
     26 C4         45.3240   36.8820   16.2490 C.ar      1 SAH         0.1613
     27 H1         34.9314   37.8475   17.1864 H         1 SAH         0.2010
     28 H2         35.8916   36.6773   16.5398 H         1 SAH         0.2010
     29 H3         34.2842   36.7111   16.1869 H         1 SAH         0.2010
     30 H4         34.4753   38.7487   15.0442 H         1 SAH         0.1024
     31 H5         36.2936   39.6756   16.4035 H         1 SAH         0.0347
     32 H6         36.6673   39.7467   14.6480 H         1 SAH         0.0347
     33 H7         38.1647   37.8156   14.8877 H         1 SAH         0.0379
     34 H8         37.7898   37.7421   16.6429 H         1 SAH         0.0379
     35 H9         40.3423   39.7115   13.9911 H         1 SAH         0.0402
     36 H10        40.8391   38.2450   14.9017 H         1 SAH         0.0402
     37 H11        41.6545   40.9046   16.0249 H         1 SAH         0.0632
     38 H12        42.1134   40.4812   13.2962 H         1 SAH         0.0647
     39 H13        43.8527   41.7381   15.2079 H         1 SAH         0.2100
     40 H14        43.5525   38.6472   13.4121 H         1 SAH         0.0676
     41 H15        45.3044   40.7484   14.2420 H         1 SAH         0.2101
     42 H16        44.7998   39.4813   16.0177 H         1 SAH         0.0996
     43 H17        43.1007   36.6945   13.9602 H         1 SAH         0.1349
     44 H18        47.0126   32.8142   16.7289 H         1 SAH         0.1820
     45 H19        45.7867   33.0019   15.4465 H         1 SAH         0.1820
     46 H20        47.5126   36.9139   18.5629 H         1 SAH         0.0996
@<TRIPOS>BOND
     1    1    2 1  
     2    2    3 1  
     3    2    6 1  
     4    3    4 1  
     5    4    5 1  
     6    5    9 1  
     7    6    7 ar 
     8    6    8 ar 
     9    9   10 1  
    10   10   11 1  
    11   10   12 1  
    12   11   16 1  
    13   12   13 1  
    14   12   14 1  
    15   14   15 1  
    16   14   16 1  
    17   16   17 1  
    18   17   18 1  
    19   17   26 1  
    20   18   19 2  
    21   19   20 1  
    22   20   21 ar 
    23   20   26 ar 
    24   21   22 1  
    25   21   23 ar 
    26   23   24 ar 
    27   24   25 ar 
    28   25   26 ar 
    29    1   27 1  
    30    1   28 1  
    31    1   29 1  
    32    2   30 1  
    33    3   31 1  
    34    3   32 1  
    35    4   33 1  
    36    4   34 1  
    37    9   35 1  
    38    9   36 1  
    39   10   37 1  
    40   12   38 1  
    41   13   39 1  
    42   14   40 1  
    43   15   41 1  
    44   16   42 1  
    45   18   43 1  
    46   22   44 1  
    47   22   45 1  
    48   24   46 1  
@<TRIPOS>SUBSTRUCTURE
     1 SAH         1

