### 
### Created by X-TOOL on Fri Nov 18 12:09:51 2016
### 

@<TRIPOS>MOLECULE
1aqj_ligand
   51    53     1     0     0
SMALL
GAST_HUCK


@<TRIPOS>ATOM
      1 N          35.0350   36.8700   16.4130 N.4       1 SFG         0.2327
      2 CA         35.5490   37.6800   15.3140 C.3       1 SFG         0.0285
      3 C          35.3180   36.9490   13.9970 C.2       1 SFG         0.0844
      4 O          35.5060   35.7160   13.9700 O.co2     1 SFG        -0.5643
      5 OXT        34.9580   37.6160   13.0100 O.co2     1 SFG        -0.5643
      6 CB         37.0500   37.9380   15.4770 C.3       1 SFG         0.0075
      7 CG         37.4660   38.7330   16.7040 C.3       1 SFG        -0.0030
      8 CD         38.9810   38.7180   16.9120 C.3       1 SFG        -0.0216
      9 NE         39.3780   39.5750   18.0710 N.4       1 SFG         0.2208
     10 C5         39.6110   39.2090   15.6140 C.3       1 SFG         0.0191
     11 C4         41.0290   39.7080   15.7650 C.3       1 SFG         0.0957
     12 O4         41.8610   38.7160   16.3940 O.3       1 SFG        -0.3389
     13 C3         41.6210   40.0390   14.4110 C.3       1 SFG         0.1126
     14 O3         41.9830   41.4180   14.3700 O.3       1 SFG        -0.3865
     15 C2         42.8460   39.1770   14.2770 C.3       1 SFG         0.1384
     16 O2         43.9530   39.9590   13.8160 O.3       1 SFG        -0.3836
     17 C1         43.1030   38.6250   15.6680 C.3       1 SFG         0.2009
     18 N9         43.5990   37.2270   15.6110 N.pl3     1 SFG        -0.1919
     19 C8         43.2180   36.2030   14.8020 C.2       1 SFG         0.1123
     20 N7         43.8450   35.0770   14.9420 N.2       1 SFG        -0.2958
     21 C5         44.7580   35.3670   15.9710 C.ar      1 SFG         0.1045
     22 C6         45.6230   34.5530   16.7290 C.ar      1 SFG         0.1298
     23 N6         45.8100   33.2600   16.4740 N.pl3     1 SFG        -0.3152
     24 N1         46.2510   35.1200   17.7820 N.ar      1 SFG        -0.2698
     25 C2         46.0250   36.4040   18.0600 C.ar      1 SFG         0.0533
     26 N3         45.2360   37.2720   17.4350 N.ar      1 SFG        -0.2714
     27 C4         44.6170   36.6820   16.3840 C.ar      1 SFG         0.1613
     28 H1         35.1869   37.3519   17.2852 H         1 SFG         0.2010
     29 H2         35.5153   35.9840   16.4307 H         1 SFG         0.2010
     30 H3         34.0477   36.7145   16.2826 H         1 SFG         0.2010
     31 H4         35.0168   38.6425   15.2980 H         1 SFG         0.1024
     32 H5         37.3943   38.4878   14.5886 H         1 SFG         0.0340
     33 H6         37.5551   36.9619   15.5227 H         1 SFG         0.0340
     34 H7         36.9819   38.2969   17.5903 H         1 SFG         0.0323
     35 H8         37.1351   39.7748   16.5808 H         1 SFG         0.0323
     36 H9         39.3119   37.6880   17.1106 H         1 SFG         0.0851
     37 H10        40.3793   39.5454   18.1833 H         1 SFG         0.1997
     38 H11        38.9357   39.2323   18.9094 H         1 SFG         0.1997
     39 H12        39.0868   40.5251   17.9017 H         1 SFG         0.1997
     40 H13        38.9956   40.0318   15.2212 H         1 SFG         0.0346
     41 H14        39.6128   38.3767   14.8947 H         1 SFG         0.0346
     42 H15        41.0187   40.6154   16.3867 H         1 SFG         0.0626
     43 H16        40.9026   39.8177   13.6079 H         1 SFG         0.0647
     44 H17        42.3538   41.6217   13.5195 H         1 SFG         0.2100
     45 H18        42.6622   38.3551   13.5694 H         1 SFG         0.0676
     46 H19        44.1285   40.6550   14.4382 H         1 SFG         0.2101
     47 H20        43.8625   39.2427   16.1695 H         1 SFG         0.0996
     48 H21        42.4216   36.3233   14.0690 H         1 SFG         0.1349
     49 H22        46.4538   32.7077   17.0583 H         1 SFG         0.1820
     50 H23        45.3109   32.8118   15.6924 H         1 SFG         0.1820
     51 H24        46.5606   36.7957   18.9172 H         1 SFG         0.0996
@<TRIPOS>BOND
     1    1    2 1  
     2    2    3 1  
     3    2    6 1  
     4    3    4 ar 
     5    3    5 ar 
     6    6    7 1  
     7    7    8 1  
     8    8    9 1  
     9    8   10 1  
    10   10   11 1  
    11   11   12 1  
    12   11   13 1  
    13   12   17 1  
    14   13   14 1  
    15   13   15 1  
    16   15   16 1  
    17   15   17 1  
    18   17   18 1  
    19   18   19 1  
    20   18   27 1  
    21   19   20 2  
    22   20   21 1  
    23   21   22 ar 
    24   21   27 ar 
    25   22   23 1  
    26   22   24 ar 
    27   24   25 ar 
    28   25   26 ar 
    29   26   27 ar 
    30    1   28 1  
    31    1   29 1  
    32    1   30 1  
    33    2   31 1  
    34    6   32 1  
    35    6   33 1  
    36    7   34 1  
    37    7   35 1  
    38    8   36 1  
    39    9   37 1  
    40    9   38 1  
    41    9   39 1  
    42   10   40 1  
    43   10   41 1  
    44   11   42 1  
    45   13   43 1  
    46   14   44 1  
    47   15   45 1  
    48   16   46 1  
    49   17   47 1  
    50   19   48 1  
    51   23   49 1  
    52   23   50 1  
    53   25   51 1  
@<TRIPOS>SUBSTRUCTURE
     1 SFG         1

