### 
### Created by X-TOOL on Fri Nov 18 12:17:41 2016
### 

@<TRIPOS>MOLECULE
1at5_ligand
   84    86     1     0     0
SMALL
GAST_HUCK


@<TRIPOS>ATOM
      1 C1          0.9260   26.6220   35.5900 C.3       1 MOL         0.1854
      2 C2          0.6330   26.1320   37.0110 C.3       1 MOL         0.1210
      3 C3         -0.7300   26.6860   37.4410 C.3       1 MOL         0.1111
      4 C4         -0.6860   28.2190   37.3700 C.3       1 MOL         0.1116
      5 C5         -0.3460   28.6190   35.9250 C.3       1 MOL         0.1130
      6 C6         -0.2800   30.1110   35.6720 C.3       1 MOL         0.0730
      7 C7          1.6700   24.0010   37.5250 C.2       1 MOL         0.1733
      8 C8          1.5600   22.4830   37.5320 C.3       1 MOL         0.0257
      9 N2          0.6250   24.6800   37.0490 N.am      1 MOL        -0.2766
     10 O3         -1.0590   26.2490   38.7530 O.3       1 MOL        -0.3867
     11 O4         -1.9450   28.7700   37.7500 O.3       1 MOL        -0.3865
     12 O5          0.9300   28.0560   35.5420 O.3       1 MOL        -0.3408
     13 O6         -0.3580   30.3870   34.2790 O.3       1 MOL        -0.3924
     14 O7          2.6990   24.5420   37.9310 O.2       1 MOL        -0.3974
     15 C1          4.2690   26.1440   31.5340 C.3       1 MOL         0.1854
     16 C2          4.0870   27.4930   32.2300 C.3       1 MOL         0.1210
     17 C3          3.6500   27.3550   33.6720 C.3       1 MOL         0.1114
     18 C4          2.4750   26.4070   33.7800 C.3       1 MOL         0.1181
     19 C5          2.7900   25.0840   33.0970 C.3       1 MOL         0.1134
     20 C6          1.6000   24.1390   33.1280 C.3       1 MOL         0.0730
     21 C7          5.5030   29.2310   31.3310 C.2       1 MOL         0.1733
     22 C8          6.8410   29.9610   31.3530 C.3       1 MOL         0.0257
     23 N2          5.3340   28.2350   32.1960 N.am      1 MOL        -0.2766
     24 O3          3.2610   28.6340   34.1330 O.3       1 MOL        -0.3867
     25 O4          2.1680   26.1770   35.1690 O.3       1 MOL        -0.3404
     26 O5          3.1200   25.3070   31.7140 O.3       1 MOL        -0.3408
     27 O6          0.4600   24.7360   32.5200 O.3       1 MOL        -0.3924
     28 O7          4.6300   29.5780   30.5350 O.2       1 MOL        -0.3974
     29 C1          5.9260   24.7590   26.6890 C.3       1 MOL         0.1823
     30 C2          4.6300   24.1040   27.1640 C.3       1 MOL         0.1208
     31 C3          3.9680   24.9500   28.2640 C.3       1 MOL         0.1114
     32 C4          4.9780   25.3730   29.3480 C.3       1 MOL         0.1181
     33 C5          6.2350   25.9460   28.7180 C.3       1 MOL         0.1133
     34 C6          7.3220   26.2930   29.7270 C.3       1 MOL         0.0730
     35 C7          3.4690   22.7380   25.5340 C.2       1 MOL         0.1733
     36 C8          2.5500   22.6760   24.3250 C.3       1 MOL         0.0257
     37 N2          3.7370   23.9470   26.0230 N.am      1 MOL        -0.2766
     38 O1          6.5800   23.9010   25.8170 O.3       1 MOL        -0.3651
     39 O3          2.9460   24.1850   28.8720 O.3       1 MOL        -0.3867
     40 O4          4.3920   26.3860   30.1760 O.3       1 MOL        -0.3404
     41 O5          6.7890   24.9900   27.7970 O.3       1 MOL        -0.3409
     42 O6          7.9360   25.1220   30.2510 O.3       1 MOL        -0.3924
     43 O7          3.8820   21.6970   26.0510 O.2       1 MOL        -0.3974
     44 H1          0.1502   26.2356   34.9127 H         1 MOL         0.0935
     45 H2          1.4106   26.5042   37.6942 H         1 MOL         0.0633
     46 H3         -1.5001   26.3188   36.7467 H         1 MOL         0.0645
     47 H4          0.0921   28.5966   38.0497 H         1 MOL         0.0647
     48 H5         -1.1289   28.2008   35.2753 H         1 MOL         0.0647
     49 H6          0.6697   30.5026   36.0653 H         1 MOL         0.0584
     50 H7         -1.1198   30.6021   36.1853 H         1 MOL         0.0584
     51 H8          2.4826   22.0505   37.9463 H         1 MOL         0.0467
     52 H9          1.4151   22.1211   36.5034 H         1 MOL         0.0467
     53 H10         0.7029   22.1803   38.1514 H         1 MOL         0.0467
     54 H11        -0.1750   24.1824   36.7137 H         1 MOL         0.1857
     55 H12        -1.9114   26.5913   38.9951 H         1 MOL         0.2100
     56 H13        -2.1438   28.5162   38.6437 H         1 MOL         0.2100
     57 H14        -0.3151   31.3259   34.1404 H         1 MOL         0.2095
     58 H15         5.1661   25.6399   31.9225 H         1 MOL         0.0935
     59 H16         3.3170   28.0594   31.6856 H         1 MOL         0.0633
     60 H17         4.4851   26.9747   34.2786 H         1 MOL         0.0645
     61 H18         1.6024   26.8625   33.2890 H         1 MOL         0.0650
     62 H19         3.6422   24.6144   33.6101 H         1 MOL         0.0647
     63 H20         1.3628   23.8930   34.1736 H         1 MOL         0.0584
     64 H21         1.8573   23.2182   32.5839 H         1 MOL         0.0584
     65 H22         6.8387   30.7538   30.5905 H         1 MOL         0.0467
     66 H23         7.6511   29.2484   31.1385 H         1 MOL         0.0467
     67 H24         6.9988   30.4076   32.3458 H         1 MOL         0.0467
     68 H25         6.0714   27.9956   32.8276 H         1 MOL         0.1857
     69 H26         2.9836   28.5718   35.0395 H         1 MOL         0.2100
     70 H27         0.6590   24.9471   31.6154 H         1 MOL         0.2095
     71 H28         5.6978   25.7098   26.1852 H         1 MOL         0.0932
     72 H29         4.8609   23.1107   27.5763 H         1 MOL         0.0633
     73 H30         3.5329   25.8518   27.8086 H         1 MOL         0.0645
     74 H31         5.2404   24.4978   29.9604 H         1 MOL         0.0650
     75 H32         5.9589   26.8606   28.1729 H         1 MOL         0.0647
     76 H33         6.8738   26.8629   30.5542 H         1 MOL         0.0584
     77 H34         8.0879   26.9074   29.2311 H         1 MOL         0.0584
     78 H35         2.4112   21.6273   24.0234 H         1 MOL         0.0467
     79 H36         2.9986   23.2402   23.4941 H         1 MOL         0.0467
     80 H37         1.5751   23.1155   24.5825 H         1 MOL         0.0467
     81 H38         3.3219   24.7544   25.6037 H         1 MOL         0.1857
     82 H39         7.3904   24.3032   25.5271 H         1 MOL         0.2126
     83 H40         2.5102   24.7096   29.5333 H         1 MOL         0.2100
     84 H41         8.3290   24.6274   29.5416 H         1 MOL         0.2095
@<TRIPOS>BOND
     1    1    2 1  
     2    1   12 1  
     3   25    1 1  
     4    2    3 1  
     5    2    9 1  
     6    3    4 1  
     7    3   10 1  
     8    5    4 1  
     9    4   11 1  
    10    5    6 1  
    11   12    5 1  
    12    6   13 1  
    13    7    8 1  
    14    9    7 am 
    15    7   14 2  
    16   15   16 1  
    17   15   26 1  
    18   40   15 1  
    19   16   17 1  
    20   16   23 1  
    21   17   18 1  
    22   17   24 1  
    23   19   18 1  
    24   18   25 1  
    25   19   20 1  
    26   26   19 1  
    27   20   27 1  
    28   21   22 1  
    29   23   21 am 
    30   21   28 2  
    31   30   29 1  
    32   29   38 1  
    33   29   41 1  
    34   30   31 1  
    35   37   30 1  
    36   31   32 1  
    37   31   39 1  
    38   32   33 1  
    39   32   40 1  
    40   33   34 1  
    41   41   33 1  
    42   34   42 1  
    43   35   36 1  
    44   35   37 am 
    45   35   43 2  
    46    1   44 1  
    47    2   45 1  
    48    3   46 1  
    49    4   47 1  
    50    5   48 1  
    51    6   49 1  
    52    6   50 1  
    53    8   51 1  
    54    8   52 1  
    55    8   53 1  
    56    9   54 1  
    57   10   55 1  
    58   11   56 1  
    59   13   57 1  
    60   15   58 1  
    61   16   59 1  
    62   17   60 1  
    63   18   61 1  
    64   19   62 1  
    65   20   63 1  
    66   20   64 1  
    67   22   65 1  
    68   22   66 1  
    69   22   67 1  
    70   23   68 1  
    71   24   69 1  
    72   27   70 1  
    73   29   71 1  
    74   30   72 1  
    75   31   73 1  
    76   32   74 1  
    77   33   75 1  
    78   34   76 1  
    79   34   77 1  
    80   36   78 1  
    81   36   79 1  
    82   36   80 1  
    83   37   81 1  
    84   38   82 1  
    85   39   83 1  
    86   42   84 1  
@<TRIPOS>SUBSTRUCTURE
     1 MOL         1

