### 
### Created by X-TOOL on Fri Nov 18 12:17:52 2016
### 

@<TRIPOS>MOLECULE
1at6_ligand
   84    86     1     0     0
SMALL
GAST_HUCK


@<TRIPOS>ATOM
      1 C1          0.5030   25.5860   35.2660 C.3       1 MOL         0.1854
      2 C2         -0.0200   25.0100   36.5920 C.3       1 MOL         0.1210
      3 C3         -1.4070   25.5880   36.8750 C.3       1 MOL         0.1111
      4 C4         -1.3790   27.1160   36.8460 C.3       1 MOL         0.1116
      5 C5         -0.8000   27.5870   35.5190 C.3       1 MOL         0.1130
      6 C6         -0.6710   29.1020   35.4330 C.3       1 MOL         0.0730
      7 C7          0.5440   22.7870   37.3730 C.2       1 MOL         0.1733
      8 C8          0.3400   21.2900   37.2490 C.3       1 MOL         0.0257
      9 N2         -0.1310   23.5610   36.5260 N.am      1 MOL        -0.2766
     10 O3         -1.8810   25.1370   38.1360 O.3       1 MOL        -0.3867
     11 O4         -2.7040   27.6070   36.9860 O.3       1 MOL        -0.3865
     12 O5          0.5180   27.0230   35.3220 O.3       1 MOL        -0.3408
     13 O6         -0.6300   29.5300   34.0780 O.3       1 MOL        -0.3924
     14 O7          1.3540   23.2280   38.1900 O.2       1 MOL        -0.3974
     15 C1          4.1080   24.8800   31.4660 C.3       1 MOL         0.1854
     16 C2          4.0380   26.2450   32.1730 C.3       1 MOL         0.1210
     17 C3          3.5710   26.1410   33.6180 C.3       1 MOL         0.1114
     18 C4          2.2760   25.3290   33.6640 C.3       1 MOL         0.1181
     19 C5          2.5570   23.9680   33.0420 C.3       1 MOL         0.1134
     20 C6          1.3870   22.9950   33.1300 C.3       1 MOL         0.0730
     21 C7          5.5920   27.8740   31.2910 C.2       1 MOL         0.1733
     22 C8          6.9760   28.5050   31.3240 C.3       1 MOL         0.0257
     23 N2          5.3410   26.8870   32.1480 N.am      1 MOL        -0.2766
     24 O3          3.3630   27.4550   34.1170 O.3       1 MOL        -0.3867
     25 O4          1.8050   25.1580   35.0210 O.3       1 MOL        -0.3404
     26 O5          2.8920   24.1380   31.6500 O.3       1 MOL        -0.3408
     27 O6          0.2040   23.5540   32.5810 O.3       1 MOL        -0.3924
     28 O7          4.7630   28.2750   30.4730 O.2       1 MOL        -0.3974
     29 C1          5.5090   23.4150   26.5820 C.3       1 MOL         0.1823
     30 C2          4.1560   22.9030   27.0680 C.3       1 MOL         0.1208
     31 C3          3.6210   23.8250   28.1640 C.3       1 MOL         0.1114
     32 C4          4.6730   24.0510   29.2560 C.3       1 MOL         0.1181
     33 C5          6.0120   24.4500   28.6500 C.3       1 MOL         0.1133
     34 C6          7.1450   24.5880   29.6680 C.3       1 MOL         0.0730
     35 C7          2.7390   21.7090   25.5050 C.2       1 MOL         0.1733
     36 C8          1.8140   21.7800   24.3130 C.3       1 MOL         0.0257
     37 N2          3.2360   22.8610   25.9420 N.am      1 MOL        -0.2766
     38 O1          6.0350   22.5340   25.6510 O.3       1 MOL        -0.3651
     39 O3          2.4590   23.2450   28.7420 O.3       1 MOL        -0.3867
     40 O4          4.2380   25.1170   30.1080 O.3       1 MOL        -0.3404
     41 O5          6.4180   23.4750   27.6780 O.3       1 MOL        -0.3409
     42 O6          7.3240   23.3910   30.4180 O.3       1 MOL        -0.3924
     43 O7          2.9580   20.6220   26.0560 O.2       1 MOL        -0.3974
     44 H1         -0.1528   25.2546   34.4474 H         1 MOL         0.0935
     45 H2          0.6699   25.2856   37.4032 H         1 MOL         0.0633
     46 H3         -2.0967   25.2362   36.0936 H         1 MOL         0.0645
     47 H4         -0.7571   27.4902   37.6726 H         1 MOL         0.0647
     48 H5         -1.4652   27.2438   34.7130 H         1 MOL         0.0647
     49 H6          0.2552   29.4141   35.9377 H         1 MOL         0.0584
     50 H7         -1.5347   29.5662   35.9316 H         1 MOL         0.0584
     51 H8          0.9519   20.7729   38.0028 H         1 MOL         0.0467
     52 H9          0.6413   20.9609   36.2436 H         1 MOL         0.0467
     53 H10        -0.7212   21.0499   37.4108 H         1 MOL         0.0467
     54 H11        -0.7212   23.1415   35.8363 H         1 MOL         0.1857
     55 H12        -2.7590   25.4698   38.2805 H         1 MOL         0.2100
     56 H13        -3.0638   27.3123   37.8143 H         1 MOL         0.2100
     57 H14         0.1166   29.1338   33.6444 H         1 MOL         0.2095
     58 H15         4.9641   24.3032   31.8459 H         1 MOL         0.0935
     59 H16         3.3221   26.8749   31.6246 H         1 MOL         0.0633
     60 H17         4.3388   25.6367   34.2232 H         1 MOL         0.0645
     61 H18         1.5011   25.8485   33.0812 H         1 MOL         0.0650
     62 H19         3.4148   23.5242   33.5685 H         1 MOL         0.0647
     63 H20         1.2078   22.7458   34.1863 H         1 MOL         0.0584
     64 H21         1.6407   22.0796   32.5753 H         1 MOL         0.0584
     65 H22         7.0347   29.2998   30.5658 H         1 MOL         0.0467
     66 H23         7.7342   27.7374   31.1099 H         1 MOL         0.0467
     67 H24         7.1597   28.9342   32.3200 H         1 MOL         0.0467
     68 H25         6.0550   26.5850   32.7797 H         1 MOL         0.1857
     69 H26         2.7077   27.8937   33.5873 H         1 MOL         0.2100
     70 H27         0.3505   23.7673   31.6669 H         1 MOL         0.2095
     71 H28         5.3893   24.4124   26.1338 H         1 MOL         0.0932
     72 H29         4.2743   21.8888   27.4772 H         1 MOL         0.0633
     73 H30         3.3578   24.7948   27.7167 H         1 MOL         0.0645
     74 H31         4.7945   23.1279   29.8418 H         1 MOL         0.0650
     75 H32         5.8784   25.4211   28.1509 H         1 MOL         0.0647
     76 H33         6.9060   25.4098   30.3590 H         1 MOL         0.0584
     77 H34         8.0788   24.8177   29.1340 H         1 MOL         0.0584
     78 H35         1.4737   20.7670   24.0521 H         1 MOL         0.0467
     79 H36         2.3502   22.2181   23.4583 H         1 MOL         0.0467
     80 H37         0.9444   22.4065   24.5605 H         1 MOL         0.0467
     81 H38         2.9733   23.7132   25.4895 H         1 MOL         0.1857
     82 H39         6.8832   22.8495   25.3621 H         1 MOL         0.2126
     83 H40         2.1099   23.8305   29.4037 H         1 MOL         0.2100
     84 H41         7.5357   22.6774   29.8277 H         1 MOL         0.2095
@<TRIPOS>BOND
     1    1    2 1  
     2    1   12 1  
     3   25    1 1  
     4    2    3 1  
     5    2    9 1  
     6    3    4 1  
     7    3   10 1  
     8    5    4 1  
     9    4   11 1  
    10    5    6 1  
    11   12    5 1  
    12    6   13 1  
    13    7    8 1  
    14    9    7 am 
    15    7   14 2  
    16   15   16 1  
    17   15   26 1  
    18   40   15 1  
    19   16   17 1  
    20   16   23 1  
    21   17   18 1  
    22   17   24 1  
    23   19   18 1  
    24   18   25 1  
    25   19   20 1  
    26   26   19 1  
    27   20   27 1  
    28   21   22 1  
    29   23   21 am 
    30   21   28 2  
    31   30   29 1  
    32   29   38 1  
    33   29   41 1  
    34   30   31 1  
    35   37   30 1  
    36   31   32 1  
    37   31   39 1  
    38   32   33 1  
    39   32   40 1  
    40   33   34 1  
    41   41   33 1  
    42   34   42 1  
    43   35   36 1  
    44   35   37 am 
    45   35   43 2  
    46    1   44 1  
    47    2   45 1  
    48    3   46 1  
    49    4   47 1  
    50    5   48 1  
    51    6   49 1  
    52    6   50 1  
    53    8   51 1  
    54    8   52 1  
    55    8   53 1  
    56    9   54 1  
    57   10   55 1  
    58   11   56 1  
    59   13   57 1  
    60   15   58 1  
    61   16   59 1  
    62   17   60 1  
    63   18   61 1  
    64   19   62 1  
    65   20   63 1  
    66   20   64 1  
    67   22   65 1  
    68   22   66 1  
    69   22   67 1  
    70   23   68 1  
    71   24   69 1  
    72   27   70 1  
    73   29   71 1  
    74   30   72 1  
    75   31   73 1  
    76   32   74 1  
    77   33   75 1  
    78   34   76 1  
    79   34   77 1  
    80   36   78 1  
    81   36   79 1  
    82   36   80 1  
    83   37   81 1  
    84   38   82 1  
    85   39   83 1  
    86   42   84 1  
@<TRIPOS>SUBSTRUCTURE
     1 MOL         1

