### 
### Created by X-TOOL on Mon Sep 10 21:12:46 2018
### 

@<TRIPOS>MOLECULE
1au0_ligand
   86    87     1     0     0
SMALL
GAST_HUCK


@<TRIPOS>ATOM
      1 C1          0.1300   37.0370   62.7980 C.ar      1 SDK        -0.0687
      2 C2          0.1770   38.1890   63.5960 C.ar      1 SDK        -0.0685
      3 C3          1.3730   38.8940   63.7360 C.ar      1 SDK        -0.0578
      4 C4          2.5250   38.4630   63.0900 C.ar      1 SDK        -0.0130
      5 C5          2.4630   37.3170   62.2950 C.ar      1 SDK        -0.0578
      6 C6          1.2740   36.6030   62.1480 C.ar      1 SDK        -0.0685
      7 C7          3.8290   39.1950   63.2760 C.3       1 SDK         0.1113
      8 O8          4.4150   39.0790   64.5860 O.3       1 SDK        -0.2506
      9 C9          5.7520   38.6560   64.6190 C.2       1 SDK         0.3239
     10 O10         6.6190   39.2640   63.9820 O.2       1 SDK        -0.3773
     11 C11         7.3000   36.9030   65.4950 C.3       1 SDK         0.1329
     12 C12         8.2250   37.1880   64.3040 C.3       1 SDK        -0.0101
     13 C13         8.2630   36.1550   63.1750 C.3       1 SDK        -0.0425
     14 C14         9.5650   36.3100   62.4070 C.3       1 SDK        -0.0625
     15 C15         8.1000   34.7130   63.6930 C.3       1 SDK        -0.0625
     16 C16         8.1020   36.9950   66.7950 C.2       1 SDK         0.2017
     17 O17         8.4740   35.9560   67.3540 O.2       1 SDK        -0.3945
     18 N18         8.4100   38.1960   67.2870 N.am      1 SDK        -0.2825
     19 C19         9.2040   38.3940   68.5110 C.3       1 SDK         0.0588
     20 N20         5.9860   37.5620   65.3510 N.am      1 SDK        -0.2411
     21 C21         8.4860   39.1680   69.5950 C.3       1 SDK         0.0952
     22 O22         7.6040   39.8630   69.0990 O.3       1 SDK        -0.3878
     23 C23        18.5740   35.2160   73.8060 C.ar      1 SDK        -0.0687
     24 C24        17.2110   35.3850   73.5800 C.ar      1 SDK        -0.0685
     25 C25        16.7800   36.3930   72.7340 C.ar      1 SDK        -0.0578
     26 C26        17.6880   37.2480   72.1000 C.ar      1 SDK        -0.0130
     27 C27        19.0470   37.0740   72.3350 C.ar      1 SDK        -0.0578
     28 C28        19.4980   36.0650   73.1820 C.ar      1 SDK        -0.0685
     29 C29        17.2100   38.3240   71.1590 C.3       1 SDK         0.1113
     30 O30        16.1370   38.0570   70.2410 O.3       1 SDK        -0.2506
     31 C31        14.8290   37.7800   70.7060 C.2       1 SDK         0.3239
     32 O32        14.3690   36.6360   70.7060 O.2       1 SDK        -0.3773
     33 C33        12.7400   38.5980   71.6500 C.3       1 SDK         0.1329
     34 C34        12.6760   38.7120   73.1710 C.3       1 SDK        -0.0101
     35 C35        12.8410   37.4320   73.9700 C.3       1 SDK        -0.0425
     36 C36        12.5570   36.2090   73.0970 C.3       1 SDK        -0.0625
     37 C37        14.2560   37.4030   74.4850 C.3       1 SDK        -0.0625
     38 C38        11.7710   39.5920   71.0350 C.2       1 SDK         0.2017
     39 O39        12.1680   40.6910   70.6630 O.2       1 SDK        -0.3945
     40 N40        10.5020   39.2030   70.9360 N.am      1 SDK        -0.2825
     41 C41         9.4300   40.0210   70.3680 C.3       1 SDK         0.0588
     42 N42        14.1070   38.8040   71.1590 N.am      1 SDK        -0.2411
     43 H1         -0.7983   36.4878   62.6900 H         1 SDK         0.0559
     44 H2         -0.7166   38.5322   64.1046 H         1 SDK         0.0599
     45 H3          1.4035   39.7845   64.3533 H         1 SDK         0.0557
     46 H4          3.3553   36.9759   61.7826 H         1 SDK         0.0557
     47 H5          1.2451   35.7137   61.5288 H         1 SDK         0.0599
     48 H6          3.6521   40.2620   63.0756 H         1 SDK         0.0776
     49 H7          4.5490   38.7990   62.5448 H         1 SDK         0.0776
     50 H8          7.0504   35.8342   65.4216 H         1 SDK         0.0799
     51 H9          9.2479   37.2842   64.6970 H         1 SDK         0.0315
     52 H10         7.9098   38.1455   63.8638 H         1 SDK         0.0315
     53 H11         7.4273   36.3633   62.4907 H         1 SDK         0.0298
     54 H12         9.6008   35.5709   61.5931 H         1 SDK         0.0232
     55 H13        10.4138   36.1473   63.0875 H         1 SDK         0.0232
     56 H14         9.6230   37.3239   61.9844 H         1 SDK         0.0232
     57 H15         7.1521   34.6264   64.2443 H         1 SDK         0.0232
     58 H16         8.9374   34.4670   64.3626 H         1 SDK         0.0232
     59 H17         8.0941   34.0161   62.8419 H         1 SDK         0.0232
     60 H18         8.0841   39.0053   66.7983 H         1 SDK         0.1852
     61 H19        10.1195   38.9422   68.2439 H         1 SDK         0.0546
     62 H20         9.4723   37.4056   68.9124 H         1 SDK         0.0546
     63 H21         5.2117   37.1588   65.8387 H         1 SDK         0.1899
     64 H22         8.0218   38.4490   70.2860 H         1 SDK         0.0634
     65 H23         7.1586   40.3452   69.7857 H         1 SDK         0.2100
     66 H24        18.9207   34.4278   74.4645 H         1 SDK         0.0559
     67 H25        16.4924   34.7325   74.0626 H         1 SDK         0.0599
     68 H26        15.7180   36.5222   72.5595 H         1 SDK         0.0557
     69 H27        19.7630   37.7305   71.8540 H         1 SDK         0.0557
     70 H28        20.5599   35.9367   73.3581 H         1 SDK         0.0599
     71 H29        18.0779   38.6232   70.5531 H         1 SDK         0.0776
     72 H30        16.8891   39.1709   71.7833 H         1 SDK         0.0776
     73 H31        12.4254   37.5837   71.3632 H         1 SDK         0.0799
     74 H32        11.6962   39.1397   73.4299 H         1 SDK         0.0315
     75 H33        13.4722   39.4030   73.4849 H         1 SDK         0.0315
     76 H34        12.1406   37.4344   74.8182 H         1 SDK         0.0298
     77 H35        12.6823   35.2944   73.6952 H         1 SDK         0.0232
     78 H36        13.2587   36.1921   72.2501 H         1 SDK         0.0232
     79 H37        11.5257   36.2607   72.7178 H         1 SDK         0.0232
     80 H38        14.4373   38.2905   75.1091 H         1 SDK         0.0232
     81 H39        14.9553   37.4029   73.6359 H         1 SDK         0.0232
     82 H40        14.4089   36.4946   75.0861 H         1 SDK         0.0232
     83 H41        10.2655   38.2913   71.2721 H         1 SDK         0.1852
     84 H42         8.8846   40.5210   71.1819 H         1 SDK         0.0546
     85 H43         9.8661   40.7780   69.6996 H         1 SDK         0.0546
     86 H44        14.5012   39.7230   71.1644 H         1 SDK         0.1899
@<TRIPOS>BOND
     1    2    1 ar 
     2    6    1 ar 
     3    3    2 ar 
     4    4    3 ar 
     5    4    5 ar 
     6    7    4 1  
     7    5    6 ar 
     8    8    7 1  
     9    9    8 1  
    10    9   10 2  
    11   20    9 am 
    12   11   12 1  
    13   16   11 1  
    14   11   20 1  
    15   12   13 1  
    16   13   14 1  
    17   13   15 1  
    18   16   17 2  
    19   18   16 am 
    20   19   18 1  
    21   21   19 1  
    22   21   22 1  
    23   41   21 1  
    24   24   23 ar 
    25   28   23 ar 
    26   25   24 ar 
    27   26   25 ar 
    28   26   27 ar 
    29   29   26 1  
    30   27   28 ar 
    31   30   29 1  
    32   31   30 1  
    33   31   32 2  
    34   42   31 am 
    35   33   34 1  
    36   38   33 1  
    37   33   42 1  
    38   34   35 1  
    39   35   36 1  
    40   35   37 1  
    41   38   39 2  
    42   40   38 am 
    43   40   41 1  
    44    1   43 1  
    45    2   44 1  
    46    3   45 1  
    47    5   46 1  
    48    6   47 1  
    49    7   48 1  
    50    7   49 1  
    51   11   50 1  
    52   12   51 1  
    53   12   52 1  
    54   13   53 1  
    55   14   54 1  
    56   14   55 1  
    57   14   56 1  
    58   15   57 1  
    59   15   58 1  
    60   15   59 1  
    61   18   60 1  
    62   19   61 1  
    63   19   62 1  
    64   20   63 1  
    65   21   64 1  
    66   22   65 1  
    67   23   66 1  
    68   24   67 1  
    69   25   68 1  
    70   27   69 1  
    71   28   70 1  
    72   29   71 1  
    73   29   72 1  
    74   33   73 1  
    75   34   74 1  
    76   34   75 1  
    77   35   76 1  
    78   36   77 1  
    79   36   78 1  
    80   36   79 1  
    81   37   80 1  
    82   37   81 1  
    83   37   82 1  
    84   40   83 1  
    85   41   84 1  
    86   41   85 1  
    87   42   86 1  
@<TRIPOS>SUBSTRUCTURE
     1 SDK         1

