### 
### Created by X-TOOL on Mon Sep 10 21:12:46 2018
### 

@<TRIPOS>MOLECULE
1au2_ligand
   70    72     1     0     0
SMALL
GAST_HUCK


@<TRIPOS>ATOM
      1 C1          3.2680   39.4450   63.9150 C.ar      1 POS         0.1161
      2 C2          3.0200   38.6560   62.7970 C.ar      1 POS        -0.0285
      3 C3          1.7520   38.1850   62.5520 C.ar      1 POS        -0.0697
      4 C4          0.7360   38.4880   63.3900 C.ar      1 POS        -0.0723
      5 C5          0.9530   39.2620   64.4790 C.ar      1 POS        -0.0697
      6 C6          2.1820   39.7320   64.7470 C.ar      1 POS        -0.0285
      7 O7          4.6460   39.9500   64.2870 O.3       1 POS        -0.2579
      8 C8          5.6050   39.0650   64.6990 C.ar      1 POS         0.1162
      9 C9          5.5930   38.7770   66.0560 C.ar      1 POS        -0.0266
     10 C10         6.5610   37.8690   66.7090 C.ar      1 POS        -0.0431
     11 C11         7.5660   37.2330   65.9310 C.ar      1 POS         0.0976
     12 C12         7.5920   37.5030   64.5500 C.ar      1 POS        -0.0431
     13 C13         6.5980   38.4320   63.8920 C.ar      1 POS        -0.0266
     14 S14         8.7260   36.1520   66.6980 S.o2      1 POS         0.0637
     15 O15         8.1080   34.8230   66.9790 O.2       1 POS        -0.1516
     16 O16         9.9290   36.0860   65.8280 O.2       1 POS        -0.1516
     17 N17         9.2680   36.8500   68.1670 N.am      1 POS        -0.2460
     18 C18         9.4800   38.3070   68.3640 C.3       1 POS         0.0543
     19 C19         8.9590   39.2330   69.4960 C.3       1 POS         0.0919
     20 O20         8.2830   39.9960   68.5450 O.3       1 POS        -0.3882
     21 C21        10.1500   40.1030   70.1250 C.3       1 POS         0.0584
     22 N22        10.8640   39.0530   70.8690 N.am      1 POS        -0.2825
     23 C23        11.8470   39.2820   71.7330 C.2       1 POS         0.2017
     24 O24        12.2700   40.4480   72.0140 O.2       1 POS        -0.3945
     25 C25        12.4010   38.0250   72.3840 C.3       1 POS         0.1308
     26 C26        11.7520   37.8550   73.7800 C.3       1 POS        -0.0101
     27 C27        12.4260   37.9740   75.1570 C.3       1 POS        -0.0425
     28 C28        12.6610   36.6370   75.7620 C.3       1 POS        -0.0625
     29 C29        13.6170   38.9040   75.2430 C.3       1 POS        -0.0625
     30 N30        13.8550   38.0350   72.4770 N.am      1 POS        -0.2632
     31 C31        14.4620   36.8740   72.6910 C.2       1 POS         0.2173
     32 O32        13.8160   35.8280   72.7860 O.2       1 POS        -0.3792
     33 C33        15.9130   36.4740   72.8910 C.ar      1 POS         0.0698
     34 C34        16.1220   35.8870   74.1330 C.ar      1 POS        -0.0141
     35 C35        17.3560   35.4120   74.5400 C.ar      1 POS         0.0169
     36 N36        18.3880   35.5480   73.6430 N.ar      1 POS        -0.2918
     37 C37        16.9720   36.5910   72.0350 C.ar      1 POS        -0.0141
     38 C38        18.2300   36.1210   72.4110 C.ar      1 POS         0.0169
     39 H1          3.8283   38.4119   62.1173 H         1 POS         0.0552
     40 H2          1.5659   37.5667   61.6813 H         1 POS         0.0590
     41 H3         -0.2593   38.1087   63.1887 H         1 POS         0.0528
     42 H4          0.1285   39.5043   65.1397 H         1 POS         0.0590
     43 H5          2.3351   40.3466   65.6267 H         1 POS         0.0552
     44 H6          4.8323   39.2431   66.6717 H         1 POS         0.0553
     45 H7          6.5041   37.6894   67.7765 H         1 POS         0.0610
     46 H8          8.3504   37.0287   63.9377 H         1 POS         0.0610
     47 H9          6.6384   38.6148   62.8243 H         1 POS         0.0553
     48 H10         9.4525   36.2398   68.9374 H         1 POS         0.1672
     49 H11         9.0963   38.7648   67.4403 H         1 POS         0.0501
     50 H12        10.5735   38.4198   68.4024 H         1 POS         0.0501
     51 H13         8.3418   38.7520   70.2691 H         1 POS         0.0629
     52 H14         7.8257   40.7072   68.9781 H         1 POS         0.2099
     53 H15         9.7719   40.8915   70.7923 H         1 POS         0.0546
     54 H16        10.7824   40.5539   69.3460 H         1 POS         0.0546
     55 H17        10.5910   38.1036   70.7139 H         1 POS         0.1852
     56 H18        12.1138   37.1645   71.7619 H         1 POS         0.0800
     57 H19        11.3230   36.8422   73.7664 H         1 POS         0.0315
     58 H20        10.9402   38.5969   73.8021 H         1 POS         0.0315
     59 H21        11.6678   38.4488   75.7971 H         1 POS         0.0298
     60 H22        13.1429   36.7582   76.7433 H         1 POS         0.0232
     61 H23        13.3143   36.0461   75.1032 H         1 POS         0.0232
     62 H24        11.6997   36.1171   75.8873 H         1 POS         0.0232
     63 H25        13.3644   39.8673   74.7759 H         1 POS         0.0232
     64 H26        14.4720   38.4545   74.7169 H         1 POS         0.0232
     65 H27        13.8801   39.0662   76.2987 H         1 POS         0.0232
     66 H28        14.3756   38.8837   72.3832 H         1 POS         0.1880
     67 H29        15.2820   35.7974   74.8123 H         1 POS         0.0762
     68 H30        17.5008   34.9574   75.5133 H         1 POS         0.0837
     69 H31        16.8339   37.0497   71.0626 H         1 POS         0.0762
     70 H32        19.0728   36.2087   71.7349 H         1 POS         0.0837
@<TRIPOS>BOND
     1    1    2 ar 
     2    1    6 ar 
     3    1    7 1  
     4    2    3 ar 
     5    3    4 ar 
     6    4    5 ar 
     7    5    6 ar 
     8    7    8 1  
     9    8    9 ar 
    10    8   13 ar 
    11    9   10 ar 
    12   10   11 ar 
    13   11   12 ar 
    14   11   14 1  
    15   12   13 ar 
    16   14   15 2  
    17   14   16 2  
    18   14   17 am 
    19   17   18 1  
    20   18   19 1  
    21   19   20 1  
    22   19   21 1  
    23   21   22 1  
    24   22   23 am 
    25   23   24 2  
    26   23   25 1  
    27   25   26 1  
    28   25   30 1  
    29   26   27 1  
    30   27   28 1  
    31   27   29 1  
    32   30   31 am 
    33   31   32 2  
    34   31   33 1  
    35   33   34 ar 
    36   33   37 ar 
    37   34   35 ar 
    38   35   36 ar 
    39   36   38 ar 
    40   37   38 ar 
    41    2   39 1  
    42    3   40 1  
    43    4   41 1  
    44    5   42 1  
    45    6   43 1  
    46    9   44 1  
    47   10   45 1  
    48   12   46 1  
    49   13   47 1  
    50   17   48 1  
    51   18   49 1  
    52   18   50 1  
    53   19   51 1  
    54   20   52 1  
    55   21   53 1  
    56   21   54 1  
    57   22   55 1  
    58   25   56 1  
    59   26   57 1  
    60   26   58 1  
    61   27   59 1  
    62   28   60 1  
    63   28   61 1  
    64   28   62 1  
    65   29   63 1  
    66   29   64 1  
    67   29   65 1  
    68   30   66 1  
    69   34   67 1  
    70   35   68 1  
    71   37   69 1  
    72   38   70 1  
@<TRIPOS>SUBSTRUCTURE
     1 POS         1

