### 
### Created by X-TOOL on Mon Sep 10 21:12:45 2018
### 

@<TRIPOS>MOLECULE
1avd_ligand
   31    32     1     0     0
SMALL
GAST_HUCK


@<TRIPOS>ATOM
      1 C11        33.3470    7.5510   14.5800 C.2       1 BTN         0.0348
      2 O11        32.4630    6.7800   14.3090 O.co2     1 BTN        -0.5690
      3 O12        34.6310    7.3580   14.2570 O.co2     1 BTN        -0.5690
      4 C10        33.0640    8.8120   15.3570 C.3       1 BTN         0.0002
      5 C9         34.3370    9.2700   16.1400 C.3       1 BTN        -0.0414
      6 C8         34.1000   10.3970   17.1550 C.3       1 BTN        -0.0505
      7 C7         35.4080   11.0180   17.7030 C.3       1 BTN        -0.0389
      8 C2         36.0120   10.2850   18.9330 C.3       1 BTN         0.0302
      9 S1         35.0490   10.3590   20.4690 S.3       1 BTN        -0.1527
     10 C6         36.5110    9.7330   21.3280 C.3       1 BTN         0.0190
     11 C5         37.5950   10.6450   20.7660 C.3       1 BTN         0.0750
     12 N1         37.4320   11.9640   21.3400 N.am      1 BTN        -0.2671
     13 C3         37.0050   12.8970   20.5100 C.2       1 BTN         0.2580
     14 O3         36.7480   14.0660   20.8030 O.2       1 BTN        -0.4008
     15 N2         36.9170   12.3440   19.2800 N.am      1 BTN        -0.2668
     16 C4         37.3380   10.9370   19.2710 C.3       1 BTN         0.0775
     17 H1         32.2489    8.6221   16.0708 H         1 BTN         0.0430
     18 H2         32.7627    9.6072   14.6593 H         1 BTN         0.0430
     19 H3         35.0808    9.6194   15.4088 H         1 BTN         0.0283
     20 H4         34.7363    8.4001   16.6821 H         1 BTN         0.0283
     21 H5         33.5269    9.9894   18.0008 H         1 BTN         0.0267
     22 H6         33.5164   11.1902   16.6649 H         1 BTN         0.0267
     23 H7         35.1976   12.0578   17.9937 H         1 BTN         0.0277
     24 H8         36.1562   11.0069   16.8967 H         1 BTN         0.0277
     25 H9         36.1623    9.2297   18.6614 H         1 BTN         0.0435
     26 H10        36.7032    8.6784   21.0813 H         1 BTN         0.0399
     27 H11        36.4164    9.8432   22.4184 H         1 BTN         0.0399
     28 H12        38.5949   10.2227   20.9445 H         1 BTN         0.0584
     29 H13        37.6298   12.1554   22.3014 H         1 BTN         0.1849
     30 H14        36.6014   12.8364   18.4689 H         1 BTN         0.1849
     31 H15        38.1737   10.6842   18.6019 H         1 BTN         0.0587
@<TRIPOS>BOND
     1    1    2 ar 
     2    1    3 ar 
     3    1    4 1  
     4    4    5 1  
     5    5    6 1  
     6    6    7 1  
     7    7    8 1  
     8    8    9 1  
     9    8   16 1  
    10    9   10 1  
    11   10   11 1  
    12   11   12 1  
    13   11   16 1  
    14   12   13 am 
    15   13   14 2  
    16   13   15 am 
    17   15   16 1  
    18    4   17 1  
    19    4   18 1  
    20    5   19 1  
    21    5   20 1  
    22    6   21 1  
    23    6   22 1  
    24    7   23 1  
    25    7   24 1  
    26    8   25 1  
    27   10   26 1  
    28   10   27 1  
    29   11   28 1  
    30   12   29 1  
    31   15   30 1  
    32   16   31 1  
@<TRIPOS>SUBSTRUCTURE
     1 BTN         1

