### 
### Created by X-TOOL on Mon Sep 10 21:12:46 2018
### 

@<TRIPOS>MOLECULE
1awf_ligand
  108   112     1     0     0
SMALL
GAST_HUCK


@<TRIPOS>ATOM
      1 C1          3.0570   17.1890   48.1100 C.3       1 GR4        -0.0428
      2 C2          2.2460   16.0630   47.5050 C.3       1 GR4        -0.0219
      3 C3          2.5040   14.7600   48.2240 C.3       1 GR4         0.1013
      4 C4          2.1650   14.9410   49.7410 C.3       1 GR4         0.0978
      5 C5          2.7730   16.2430   50.3890 C.3       1 GR4         0.0073
      6 C6          2.3860   16.5280   51.8540 C.3       1 GR4         0.0242
      7 C7          2.8020   17.8940   52.3250 C.2       1 GR4        -0.0127
      8 C8          3.4680   18.7640   51.5470 C.2       1 GR4        -0.0607
      9 C9          3.7660   18.4550   50.1050 C.3       1 GR4        -0.0081
     10 C10         2.6890   17.5150   49.5610 C.3       1 GR4        -0.0143
     11 C11         4.0450   19.6940   49.2510 C.3       1 GR4        -0.0163
     12 C12         5.1570   20.5810   49.8020 C.3       1 GR4         0.0508
     13 C13         5.3380   20.4280   51.3360 C.3       1 GR4        -0.0350
     14 C14         3.9420   20.1290   52.0000 C.3       1 GR4        -0.0343
     15 C15         4.2340   20.3200   53.4920 C.3       1 GR4        -0.0634
     16 C16         5.3350   21.3960   53.5450 C.3       1 GR4         0.0479
     17 C17         5.7540   21.7310   52.0950 C.3       1 GR4        -0.0003
     18 C18         6.3570   19.3110   51.7180 C.3       1 GR4        -0.0692
     19 C19         1.3000   18.1950   49.6370 C.3       1 GR4        -0.0572
     20 C22         7.4530   22.9510   50.4740 C.3       1 GR4         0.0310
     21 C23         8.8410   22.8680   49.9490 C.2       1 GR4         0.0895
     22 C24         9.2080   23.4890   48.6930 C.2       1 GR4        -0.0304
     23 C25        10.1280   22.9660   47.8640 C.2       1 GR4        -0.0480
     24 C26        10.4070   23.6140   46.5580 C.3       1 GR4        -0.0188
     25 C27        10.8750   21.6850   48.0980 C.3       1 GR4        -0.0188
     26 C28         2.7720   21.1290   51.6880 C.3       1 GR4         0.0069
     27 C29         2.6130   13.6760   50.5080 C.2       1 GR4         0.2675
     28 C30         0.6220   14.9330   49.9140 C.3       1 GR4        -0.0488
     29 O31         1.8490   13.0000   51.1270 O.2       1 GR4        -0.3118
     30 O32         4.8200   22.5160   54.2050 O.3       1 GR4        -0.3927
     31 O33         8.1270   23.4420   53.8040 O.2       1 GR4        -0.3745
     32 O34         3.9150   13.3880   50.4330 O.3       1 GR4        -0.2422
     33 O35         9.7010   22.2580   50.5270 O.2       1 GR4        -0.4091
     34 O36         3.8840   14.3840   47.9570 O.3       1 GR4        -0.2744
     35 C37         4.2910   13.9130   46.7640 C.2       1 GR4         0.2307
     36 C38         5.8000   13.8960   46.6400 C.3       1 GR4         0.0372
     37 O39         3.6000   13.5250   45.8740 O.2       1 GR4        -0.3707
     38 O1          1.6670   21.1510   52.1560 O.3       1 GR4        -0.4095
     39 O2          6.3570   20.3090   49.1050 O.3       1 GR4        -0.3924
     40 O3          5.2730   11.4900   50.4910 O.3       1 GR4        -0.3370
     41 C32         4.3810   12.2460   49.7010 C.3       1 GR4         0.2144
     42 C33         3.3250   11.2750   49.1130 C.3       1 GR4         0.1383
     43 C34         4.0870   10.3500   48.1410 C.3       1 GR4         0.1144
     44 C35         5.2620    9.6680   48.8520 C.3       1 GR4         0.1119
     45 C36         6.1010   10.6010   49.7410 C.3       1 GR4         0.1133
     46 O4          6.1340    9.1370   47.8250 O.3       1 GR4        -0.3865
     47 O5          3.2610    9.3240   47.5380 O.3       1 GR4        -0.3864
     48 O6          2.2510   11.8590   48.3520 O.3       1 GR4        -0.3837
     49 C31         6.9970    9.6980   50.6350 C.3       1 GR4         0.0730
     50 O7          6.3500    9.2540   51.8400 O.3       1 GR4        -0.3924
     51 C20         7.2120   22.3250   51.8900 C.3       1 GR4         0.0488
     52 C21         7.3830   23.4780   52.8750 C.2       1 GR4         0.1046
     53 H1          2.9005   18.0926   47.5026 H         1 GR4         0.0273
     54 H2          4.1193   16.9053   48.0784 H         1 GR4         0.0273
     55 H3          2.5222   15.9499   46.4463 H         1 GR4         0.0292
     56 H4          1.1767   16.3095   47.5807 H         1 GR4         0.0292
     57 H5          1.8456   13.9784   47.8171 H         1 GR4         0.0640
     58 H6          3.8492   16.0196   50.4325 H         1 GR4         0.0354
     59 H7          2.8688   15.7758   52.4952 H         1 GR4         0.0679
     60 H8          1.2934   16.4439   51.9490 H         1 GR4         0.0679
     61 H9          2.5523   18.1917   53.3423 H         1 GR4         0.1467
     62 H10         4.7047   17.8815   50.0973 H         1 GR4         0.0444
     63 H11         3.1224   20.2901   49.1921 H         1 GR4         0.0313
     64 H12         4.3327   19.3629   48.2422 H         1 GR4         0.0313
     65 H13         4.8804   21.6277   49.6073 H         1 GR4         0.0587
     66 H14         4.5891   19.3804   53.9404 H         1 GR4         0.0130
     67 H15         3.3329   20.6618   54.0222 H         1 GR4         0.0130
     68 H16         6.2069   21.0163   54.0978 H         1 GR4         0.0584
     69 H17         5.0893   22.5317   51.7385 H         1 GR4         0.0348
     70 H18         6.0908   18.3786   51.1985 H         1 GR4         0.0223
     71 H19         6.3294   19.1457   52.8051 H         1 GR4         0.0223
     72 H20         7.3695   19.6207   51.4197 H         1 GR4         0.0223
     73 H21         0.5345   17.5101   49.2434 H         1 GR4         0.0237
     74 H22         1.3099   19.1172   49.0375 H         1 GR4         0.0237
     75 H23         1.0688   18.4407   50.6840 H         1 GR4         0.0237
     76 H24         6.7930   22.4344   49.7617 H         1 GR4         0.0500
     77 H25         7.1763   24.0144   50.5254 H         1 GR4         0.0500
     78 H26         8.7180   24.4189   48.4082 H         1 GR4         0.0272
     79 H27        11.1833   23.0454   46.0250 H         1 GR4         0.0473
     80 H28        10.7570   24.6431   46.7266 H         1 GR4         0.0473
     81 H29         9.4875   23.6337   45.9545 H         1 GR4         0.0473
     82 H30        10.6069   21.2792   49.0846 H         1 GR4         0.0473
     83 H31        11.9570   21.8799   48.0634 H         1 GR4         0.0473
     84 H32        10.6084   20.9572   47.3175 H         1 GR4         0.0473
     85 H33         2.6115   21.0376   50.6036 H         1 GR4         0.0393
     86 H34         3.1884   22.1216   51.9147 H         1 GR4         0.0393
     87 H35         0.2068   14.0216   49.4592 H         1 GR4         0.0222
     88 H36         0.1930   15.8173   49.4201 H         1 GR4         0.0222
     89 H37         0.3730   14.9543   50.9852 H         1 GR4         0.0222
     90 H38         4.5735   22.2750   55.0902 H         1 GR4         0.2097
     91 H39         6.0823   13.5045   45.6515 H         1 GR4         0.0483
     92 H40         6.2252   13.2524   47.4242 H         1 GR4         0.0483
     93 H41         6.1888   14.9186   46.7540 H         1 GR4         0.0483
     94 H42         1.7251   21.2679   53.0970 H         1 GR4         0.2076
     95 H43         6.2103   20.4118   48.1720 H         1 GR4         0.2097
     96 H44         4.9436   12.6463   48.8447 H         1 GR4         0.0990
     97 H45         2.8891   10.6942   49.9392 H         1 GR4         0.0675
     98 H46         4.4863   10.9798   47.3324 H         1 GR4         0.0648
     99 H47         4.8701    8.8500   49.4743 H         1 GR4         0.0647
    100 H48         6.7522   11.2128   49.0994 H         1 GR4         0.0647
    101 H49         5.6387    8.5555   47.2602 H         1 GR4         0.2100
    102 H50         2.5271    9.7310   47.0926 H         1 GR4         0.2100
    103 H51         2.6115   12.3505   47.6233 H         1 GR4         0.2101
    104 H52         7.8961   10.2674   50.9132 H         1 GR4         0.0584
    105 H53         7.2896    8.8126   50.0515 H         1 GR4         0.0584
    106 H54         6.0996   10.0085   52.3601 H         1 GR4         0.2095
    107 H55         7.9542   21.5348   52.0762 H         1 GR4         0.0555
    108 H56         6.7939   24.3807   52.7202 H         1 GR4         0.1353
@<TRIPOS>BOND
     1    1    2 1  
     2   10    1 1  
     3    2    3 1  
     4    4    3 1  
     5    3   34 1  
     6    5    4 1  
     7    4   27 1  
     8    4   28 1  
     9    6    5 1  
    10   10    5 1  
    11    7    6 1  
    12    8    7 2  
    13    8    9 1  
    14   14    8 1  
    15    9   10 1  
    16   11    9 1  
    17   10   19 1  
    18   12   11 1  
    19   13   12 1  
    20   12   39 1  
    21   13   14 1  
    22   17   13 1  
    23   13   18 1  
    24   15   14 1  
    25   14   26 1  
    26   16   15 1  
    27   17   16 1  
    28   16   30 1  
    29   51   17 1  
    30   20   21 1  
    31   51   20 1  
    32   21   22 1  
    33   21   33 2  
    34   22   23 2  
    35   23   24 1  
    36   23   25 1  
    37   26   38 1  
    38   27   29 2  
    39   27   32 1  
    40   52   31 2  
    41   32   41 1  
    42   34   35 1  
    43   35   36 1  
    44   35   37 2  
    45   41   40 1  
    46   40   45 1  
    47   41   42 1  
    48   42   43 1  
    49   42   48 1  
    50   43   44 1  
    51   43   47 1  
    52   45   44 1  
    53   44   46 1  
    54   45   49 1  
    55   49   50 1  
    56   51   52 1  
    57    1   53 1  
    58    1   54 1  
    59    2   55 1  
    60    2   56 1  
    61    3   57 1  
    62    5   58 1  
    63    6   59 1  
    64    6   60 1  
    65    7   61 1  
    66    9   62 1  
    67   11   63 1  
    68   11   64 1  
    69   12   65 1  
    70   15   66 1  
    71   15   67 1  
    72   16   68 1  
    73   17   69 1  
    74   18   70 1  
    75   18   71 1  
    76   18   72 1  
    77   19   73 1  
    78   19   74 1  
    79   19   75 1  
    80   20   76 1  
    81   20   77 1  
    82   22   78 1  
    83   24   79 1  
    84   24   80 1  
    85   24   81 1  
    86   25   82 1  
    87   25   83 1  
    88   25   84 1  
    89   26   85 1  
    90   26   86 1  
    91   28   87 1  
    92   28   88 1  
    93   28   89 1  
    94   30   90 1  
    95   36   91 1  
    96   36   92 1  
    97   36   93 1  
    98   38   94 1  
    99   39   95 1  
   100   41   96 1  
   101   42   97 1  
   102   43   98 1  
   103   44   99 1  
   104   45  100 1  
   105   46  101 1  
   106   47  102 1  
   107   48  103 1  
   108   49  104 1  
   109   49  105 1  
   110   50  106 1  
   111   51  107 1  
   112   52  108 1  
@<TRIPOS>SUBSTRUCTURE
     1 GR4         1

