### 
### Created by X-TOOL on Fri Nov 18 12:19:56 2016
### 

@<TRIPOS>MOLECULE
1awh_ligand
   86    89     1     0     0
SMALL
GAST_HUCK


@<TRIPOS>ATOM
      1 C1         13.4620   15.2010   57.9020 C.3       1 GR3        -0.0426
      2 C2         13.4510   16.6200   58.4750 C.3       1 GR3        -0.0215
      3 C3         14.5220   17.4680   57.7920 C.3       1 GR3         0.0982
      4 C4         14.2290   17.5900   56.3090 C.3       1 GR3         0.0516
      5 C5         14.1060   16.1790   55.6490 C.3       1 GR3         0.0043
      6 C6         13.7960   16.2010   54.1200 C.3       1 GR3         0.0246
      7 C7         13.4480   14.8240   53.5690 C.2       1 GR3        -0.0127
      8 C8         13.3680   13.7170   54.3310 C.2       1 GR3        -0.0631
      9 C9         13.5750   13.7490   55.8340 C.3       1 GR3        -0.0104
     10 C10        13.1840   15.1590   56.3960 C.3       1 GR3        -0.0140
     11 C11        12.8570   12.6320   56.5380 C.3       1 GR3        -0.0424
     12 C12        13.0650   11.2580   55.9270 C.3       1 GR3        -0.0578
     13 C13        13.6040   11.2520   54.5020 C.3       1 GR3        -0.0654
     14 C14        12.9860   12.4150   53.7350 C.3       1 GR3        -0.0622
     15 C15        13.3400   12.0780   52.2850 C.3       1 GR3        -0.0659
     16 C16        13.3560   10.5170   52.1870 C.3       1 GR3         0.0457
     17 C17        13.1510   10.0300   53.6440 C.3       1 GR3        -0.0163
     18 C18        15.1410   11.2730   54.5250 C.3       1 GR3        -0.0717
     19 C19        11.6820   15.4750   56.1700 C.3       1 GR3        -0.0571
     20 C22        13.3980    8.1220   55.3090 C.3       1 GR3         0.0175
     21 C23        14.5620    7.8370   56.1970 C.2       1 GR3         0.0873
     22 C24        14.3200    7.1540   57.4930 C.2       1 GR3        -0.0305
     23 C25        15.2110    7.0180   58.5000 C.2       1 GR3        -0.0480
     24 C26        14.8330    6.2020   59.7040 C.3       1 GR3        -0.0188
     25 C27        16.5760    7.6740   58.5800 C.3       1 GR3        -0.0188
     26 C28        11.4600   12.5030   53.7530 C.3       1 GR3        -0.1041
     27 C29        15.3810   18.3820   55.6660 C.2       1 GR3         0.0541
     28 C30        12.9770   18.4870   56.0900 C.3       1 GR3        -0.0517
     29 O31        16.3710   18.6630   56.2900 O.co2     1 GR3        -0.5474
     30 O32        12.4090    9.9840   51.2330 O.3       1 GR3        -0.3928
     31 O33        14.3870    6.8990   52.5330 O.3       1 GR3        -0.3946
     32 O34        15.2220   18.8700   54.5600 O.co2     1 GR3        -0.5474
     33 O35        15.6880    8.1390   55.8640 O.2       1 GR3        -0.4093
     34 O36        15.8130   16.8310   58.0270 O.3       1 GR3        -0.2739
     35 C37        16.7740   17.3130   58.8890 C.2       1 GR3         0.2308
     36 C38        16.4870   18.7120   59.4380 C.3       1 GR3         0.0372
     37 O39        17.7800   16.7190   59.2940 O.2       1 GR3        -0.3707
     38 C20        13.8230    8.6950   53.9550 C.3       1 GR3         0.0007
     39 C21        13.4980    7.5390   53.0590 C.3       1 GR3         0.0493
     40 H1         12.6907   14.6095   58.4170 H         1 GR3         0.0273
     41 H2         14.4506   14.7559   58.0880 H         1 GR3         0.0273
     42 H3         13.6538   16.5781   59.5553 H         1 GR3         0.0293
     43 H4         12.4636   17.0739   58.3046 H         1 GR3         0.0293
     44 H5         14.5291   18.4749   58.2348 H         1 GR3         0.0646
     45 H6         15.1179   15.7552   55.7292 H         1 GR3         0.0360
     46 H7         14.6808   16.5795   53.5873 H         1 GR3         0.0679
     47 H8         12.9453   16.8756   53.9434 H         1 GR3         0.0679
     48 H9         13.2535   14.7301   52.5016 H         1 GR3         0.1467
     49 H10        14.6495   13.6064   56.0211 H         1 GR3         0.0443
     50 H11        11.7798   12.8540   56.5226 H         1 GR3         0.0288
     51 H12        13.2101   12.6006   57.5793 H         1 GR3         0.0288
     52 H13        12.0963   10.7368   55.9257 H         1 GR3         0.0259
     53 H14        13.7762   10.7085   56.5612 H         1 GR3         0.0259
     54 H15        14.3294   12.4855   52.0301 H         1 GR3         0.0129
     55 H16        12.5849   12.4945   51.6021 H         1 GR3         0.0129
     56 H17        14.3538   10.1974   51.8519 H         1 GR3         0.0583
     57 H18        12.0752    9.8750   53.8129 H         1 GR3         0.0322
     58 H19        15.4871   12.1275   55.1251 H         1 GR3         0.0222
     59 H20        15.5218   11.3684   53.4975 H         1 GR3         0.0222
     60 H21        15.5139   10.3382   54.9690 H         1 GR3         0.0222
     61 H22        11.4513   16.4702   56.5779 H         1 GR3         0.0237
     62 H23        11.0674   14.7184   56.6796 H         1 GR3         0.0237
     63 H24        11.4624   15.4606   55.0923 H         1 GR3         0.0237
     64 H25        12.7415    8.8488   55.8096 H         1 GR3         0.0475
     65 H26        12.8461    7.1858   55.1387 H         1 GR3         0.0475
     66 H27        13.3321    6.7223   57.6464 H         1 GR3         0.0272
     67 H28        15.6680    6.1965   60.4200 H         1 GR3         0.0473
     68 H29        14.6101    5.1708   59.3928 H         1 GR3         0.0473
     69 H30        13.9443    6.6415   60.1805 H         1 GR3         0.0473
     70 H31        16.7625    8.2458   57.6590 H         1 GR3         0.0473
     71 H32        17.3489    6.8996   58.6937 H         1 GR3         0.0473
     72 H33        16.6066    8.3525   59.4453 H         1 GR3         0.0473
     73 H34        11.1187   12.7446   54.7704 H         1 GR3         0.0068
     74 H35        11.0333   11.5378   53.4427 H         1 GR3         0.0068
     75 H36        11.1299   13.2900   53.0590 H         1 GR3         0.0068
     76 H37        13.1329   19.4598   56.5792 H         1 GR3         0.0228
     77 H38        12.0936   17.9958   56.5239 H         1 GR3         0.0228
     78 H39        12.8193   18.6397   55.0121 H         1 GR3         0.0228
     79 H40        11.5291   10.2372   51.4866 H         1 GR3         0.2097
     80 H41        14.0073    6.2083   52.0028 H         1 GR3         0.2094
     81 H42        17.3009   19.0150   60.1131 H         1 GR3         0.0483
     82 H43        15.5365   18.7008   59.9916 H         1 GR3         0.0483
     83 H44        16.4173   19.4260   58.6041 H         1 GR3         0.0483
     84 H45        14.9086    8.8715   53.9404 H         1 GR3         0.0349
     85 H46        12.9115    6.8289   53.6604 H         1 GR3         0.0561
     86 H47        12.8718    7.9361   52.2464 H         1 GR3         0.0561
@<TRIPOS>BOND
     1    1    2 1  
     2   10    1 1  
     3    2    3 1  
     4    4    3 1  
     5    3   34 1  
     6    5    4 1  
     7    4   27 1  
     8    4   28 1  
     9    6    5 1  
    10   10    5 1  
    11    7    6 1  
    12    8    7 2  
    13    8    9 1  
    14   14    8 1  
    15    9   10 1  
    16   11    9 1  
    17   10   19 1  
    18   12   11 1  
    19   13   12 1  
    20   13   14 1  
    21   17   13 1  
    22   13   18 1  
    23   15   14 1  
    24   14   26 1  
    25   16   15 1  
    26   17   16 1  
    27   16   30 1  
    28   38   17 1  
    29   20   21 1  
    30   38   20 1  
    31   21   22 1  
    32   21   33 2  
    33   22   23 2  
    34   23   24 1  
    35   23   25 1  
    36   27   29 ar 
    37   27   32 ar 
    38   39   31 1  
    39   34   35 1  
    40   35   36 1  
    41   35   37 2  
    42   38   39 1  
    43    1   40 1  
    44    1   41 1  
    45    2   42 1  
    46    2   43 1  
    47    3   44 1  
    48    5   45 1  
    49    6   46 1  
    50    6   47 1  
    51    7   48 1  
    52    9   49 1  
    53   11   50 1  
    54   11   51 1  
    55   12   52 1  
    56   12   53 1  
    57   15   54 1  
    58   15   55 1  
    59   16   56 1  
    60   17   57 1  
    61   18   58 1  
    62   18   59 1  
    63   18   60 1  
    64   19   61 1  
    65   19   62 1  
    66   19   63 1  
    67   20   64 1  
    68   20   65 1  
    69   22   66 1  
    70   24   67 1  
    71   24   68 1  
    72   24   69 1  
    73   25   70 1  
    74   25   71 1  
    75   25   72 1  
    76   26   73 1  
    77   26   74 1  
    78   26   75 1  
    79   28   76 1  
    80   28   77 1  
    81   28   78 1  
    82   30   79 1  
    83   31   80 1  
    84   36   81 1  
    85   36   82 1  
    86   36   83 1  
    87   38   84 1  
    88   39   85 1  
    89   39   86 1  
@<TRIPOS>SUBSTRUCTURE
     1 GR3         1

