### 
### Created by X-TOOL on Mon Sep 10 21:12:46 2018
### 

@<TRIPOS>MOLECULE
1awi_ligand
  143   152     1     0     0
SMALL
GAST_HUCK


@<TRIPOS>ATOM
      1 N          30.3990   78.5970   38.4640 N.4       1 PRO         0.2461
      2 CA         31.3660   77.5690   38.0550 C.3       1 PRO         0.0671
      3 C          31.0050   76.1880   38.6270 C.2       1 PRO         0.2293
      4 O          31.6040   75.7300   39.6050 O.2       1 PRO        -0.3905
      5 CB         32.6820   78.1050   38.6220 C.3       1 PRO         0.0127
      6 CG         32.2420   78.8430   39.8560 C.3       1 PRO        -0.0053
      7 CD         31.0130   79.5740   39.3810 C.3       1 PRO        -0.0313
      8 N          30.0490   75.4870   37.9850 N.am      1 PRO        -0.2471
      9 CA         29.6000   74.1620   38.4270 C.3       1 PRO         0.1341
     10 C          30.6790   73.0940   38.3910 C.2       1 PRO         0.2066
     11 O          31.7560   73.3020   37.8330 O.2       1 PRO        -0.3942
     12 CB         28.4570   73.8510   37.4610 C.3       1 PRO        -0.0104
     13 CG         28.8910   74.5370   36.2080 C.3       1 PRO        -0.0281
     14 CD         29.4010   75.8620   36.7140 C.3       1 PRO         0.0371
     15 N          30.4340   71.9640   39.0700 N.am      1 PRO        -0.2498
     16 CA         31.3880   70.8540   39.1140 C.3       1 PRO         0.1340
     17 C          31.2980   70.1170   37.7900 C.2       1 PRO         0.2066
     18 O          30.2820   70.1940   37.1000 O.2       1 PRO        -0.3942
     19 CB         30.8470   69.9720   40.2440 C.3       1 PRO        -0.0104
     20 CG         29.9280   70.8850   41.0250 C.3       1 PRO        -0.0281
     21 CD         29.2850   71.6920   39.9450 C.3       1 PRO         0.0369
     22 N          32.3530   69.3860   37.4200 N.am      1 PRO        -0.2498
     23 CA         32.3250   68.6510   36.1580 C.3       1 PRO         0.1340
     24 C          31.1920   67.6230   36.1410 C.2       1 PRO         0.2066
     25 O          30.9370   66.9400   37.1370 O.2       1 PRO        -0.3942
     26 CB         33.7000   67.9960   36.1230 C.3       1 PRO        -0.0104
     27 CG         34.0230   67.8050   37.5700 C.3       1 PRO        -0.0281
     28 CD         33.5990   69.1210   38.1520 C.3       1 PRO         0.0369
     29 N          30.4340   67.5840   35.0400 N.am      1 PRO        -0.2498
     30 CA         29.3120   66.6700   34.8470 C.3       1 PRO         0.1340
     31 C          29.7410   65.2430   34.5380 C.2       1 PRO         0.2066
     32 O          30.9170   64.9740   34.2780 O.2       1 PRO        -0.3942
     33 CB         28.5840   67.2890   33.6590 C.3       1 PRO        -0.0104
     34 CG         28.9210   68.7200   33.7710 C.3       1 PRO        -0.0281
     35 CD         30.3860   68.6480   34.0320 C.3       1 PRO         0.0369
     36 N          28.7930   64.2960   34.6160 N.am      1 PRO        -0.2498
     37 CA         29.1310   62.9030   34.3240 C.3       1 PRO         0.1340
     38 C          29.5600   62.8190   32.8650 C.2       1 PRO         0.2066
     39 O          29.2770   63.7180   32.0770 O.2       1 PRO        -0.3942
     40 CB         27.8080   62.1790   34.5560 C.3       1 PRO        -0.0104
     41 CG         27.1430   63.0140   35.6190 C.3       1 PRO        -0.0281
     42 CD         27.4140   64.4080   35.1300 C.3       1 PRO         0.0369
     43 N          30.2770   61.7590   32.4870 N.am      1 PRO        -0.2498
     44 CA         30.6830   61.6810   31.0850 C.3       1 PRO         0.1340
     45 C          29.4440   61.3440   30.2580 C.2       1 PRO         0.2066
     46 O          28.3410   61.2600   30.8030 O.2       1 PRO        -0.3942
     47 CB         31.6980   60.5440   31.1020 C.3       1 PRO        -0.0104
     48 CG         31.1550   59.6350   32.1700 C.3       1 PRO        -0.0281
     49 CD         30.7580   60.5940   33.2550 C.3       1 PRO         0.0369
     50 N          29.5710   61.2980   28.9250 N.am      1 PRO        -0.2498
     51 CA         28.3560   60.9580   28.1830 C.3       1 PRO         0.1340
     52 C          28.1330   59.4650   28.3500 C.2       1 PRO         0.2066
     53 O          29.0510   58.7390   28.7410 O.2       1 PRO        -0.3942
     54 CB         28.7270   61.3070   26.7420 C.3       1 PRO        -0.0104
     55 CG         29.7110   62.4090   26.9140 C.3       1 PRO        -0.0281
     56 CD         30.5790   61.8670   28.0230 C.3       1 PRO         0.0369
     57 N          26.8880   59.0040   28.1620 N.am      1 PRO        -0.2498
     58 CA         26.5670   57.5800   28.2960 C.3       1 PRO         0.1339
     59 C          27.5360   56.6870   27.4950 C.2       1 PRO         0.2060
     60 O          28.1300   57.1390   26.5130 O.2       1 PRO        -0.3942
     61 CB         25.1290   57.5350   27.7980 C.3       1 PRO        -0.0104
     62 CG         24.5690   58.8200   28.3620 C.3       1 PRO        -0.0281
     63 CD         25.6580   59.8020   27.9840 C.3       1 PRO         0.0369
     64 N          27.6390   55.3960   27.8650 N.am      1 PRO        -0.2556
     65 CA         28.4810   54.3500   27.2930 C.3       1 PRO         0.0972
     66 C          29.7710   54.7780   26.5890 C.2       1 PRO         0.0603
     67 O          30.1370   54.1470   25.5770 O.co2     1 PRO        -0.5666
     68 CB         27.4990   53.6080   26.3960 C.3       1 PRO        -0.0159
     69 CG         26.1920   53.6750   27.2180 C.3       1 PRO        -0.0288
     70 CD         26.4050   54.7490   28.3120 C.3       1 PRO         0.0362
     71 OXT        30.4670   55.6620   27.1370 O.co2     1 PRO        -0.5666
     72 H1         29.6235   78.1520   38.9295 H         1 PRO         0.2035
     73 H2         30.0665   79.0800   37.6441 H         1 PRO         0.2035
     74 H3         31.4173   77.4968   36.9586 H         1 PRO         0.1099
     75 H4         33.1725   78.7840   37.9090 H         1 PRO         0.0347
     76 H5         33.3672   77.2828   38.8761 H         1 PRO         0.0347
     77 H6         33.0164   79.5468   40.1951 H         1 PRO         0.0320
     78 H7         31.9988   78.1450   40.6706 H         1 PRO         0.0320
     79 H8         31.2805   80.5014   38.8535 H         1 PRO         0.0814
     80 H9         30.3411   79.8097   40.2194 H         1 PRO         0.0814
     81 H10        29.2196   74.2243   39.4572 H         1 PRO         0.0802
     82 H11        27.5046   74.2609   37.8282 H         1 PRO         0.0313
     83 H12        28.3537   72.7671   37.3044 H         1 PRO         0.0313
     84 H13        28.0454   74.6750   35.5182 H         1 PRO         0.0287
     85 H14        29.6882   73.9723   35.7025 H         1 PRO         0.0287
     86 H15        28.5749   76.5687   36.8818 H         1 PRO         0.0524
     87 H16        30.1249   76.3037   36.0134 H         1 PRO         0.0524
     88 H17        32.4166   71.1906   39.3107 H         1 PRO         0.0802
     89 H18        31.6670   69.6078   40.8804 H         1 PRO         0.0313
     90 H19        30.2905   69.1150   39.8368 H         1 PRO         0.0313
     91 H20        30.4961   71.5254   41.7158 H         1 PRO         0.0287
     92 H21        29.1805   70.3088   41.5900 H         1 PRO         0.0287
     93 H22        28.8506   72.6219   40.3408 H         1 PRO         0.0524
     94 H23        28.5067   71.1175   39.4214 H         1 PRO         0.0524
     95 H24        32.1994   69.3366   35.3070 H         1 PRO         0.0802
     96 H25        34.4374   68.6520   35.6373 H         1 PRO         0.0313
     97 H26        33.6642   67.0311   35.5960 H         1 PRO         0.0313
     98 H27        35.0980   67.6275   37.7210 H         1 PRO         0.0287
     99 H28        33.4495   66.9719   38.0024 H         1 PRO         0.0287
    100 H29        34.3489   69.9031   37.9623 H         1 PRO         0.0524
    101 H30        33.4184   69.0408   39.2341 H         1 PRO         0.0524
    102 H31        28.6687   66.6598   35.7392 H         1 PRO         0.0802
    103 H32        27.4980   67.1317   33.7354 H         1 PRO         0.0313
    104 H33        28.9493   66.8702   32.7097 H         1 PRO         0.0313
    105 H34        28.3852   69.1971   34.6049 H         1 PRO         0.0287
    106 H35        28.7031   69.2605   32.8381 H         1 PRO         0.0287
    107 H36        30.7738   69.5982   34.4278 H         1 PRO         0.0524
    108 H37        30.9455   68.3726   33.1259 H         1 PRO         0.0524
    109 H38        29.9238   62.5188   34.9827 H         1 PRO         0.0802
    110 H39        27.9771   61.1512   34.9096 H         1 PRO         0.0313
    111 H40        27.2041   62.1559   33.6369 H         1 PRO         0.0313
    112 H41        27.5964   62.8408   36.6061 H         1 PRO         0.0287
    113 H42        26.0632   62.8107   35.6706 H         1 PRO         0.0287
    114 H43        27.3525   65.1376   35.9509 H         1 PRO         0.0524
    115 H44        26.7130   64.6940   34.3320 H         1 PRO         0.0524
    116 H45        31.1365   62.6175   30.7284 H         1 PRO         0.0802
    117 H46        32.7010   60.9110   31.3653 H         1 PRO         0.0313
    118 H47        31.7383   60.0331   30.1287 H         1 PRO         0.0313
    119 H48        31.9260   58.9345   32.5234 H         1 PRO         0.0287
    120 H49        30.2855   59.0693   31.8040 H         1 PRO         0.0287
    121 H50        31.6192   60.8608   33.8852 H         1 PRO         0.0524
    122 H51        29.9591   60.1747   33.8842 H         1 PRO         0.0524
    123 H52        27.4787   61.5260   28.5260 H         1 PRO         0.0802
    124 H53        27.8464   61.6465   26.1770 H         1 PRO         0.0313
    125 H54        29.1816   60.4460   26.2300 H         1 PRO         0.0313
    126 H55        29.2172   63.3458   27.2116 H         1 PRO         0.0287
    127 H56        30.2915   62.5764   25.9948 H         1 PRO         0.0287
    128 H57        31.1522   62.6675   28.5135 H         1 PRO         0.0524
    129 H58        31.2698   61.0951   27.6530 H         1 PRO         0.0524
    130 H59        26.6117   57.2727   29.3512 H         1 PRO         0.0802
    131 H60        24.5953   56.6578   28.1926 H         1 PRO         0.0313
    132 H61        25.0854   57.5270   26.6989 H         1 PRO         0.0313
    133 H62        24.4405   58.7599   29.4528 H         1 PRO         0.0287
    134 H63        23.6089   59.0819   27.8935 H         1 PRO         0.0287
    135 H64        25.6525   60.6769   28.6507 H         1 PRO         0.0524
    136 H65        25.5481   60.1347   26.9413 H         1 PRO         0.0524
    137 H66        28.7933   53.6802   28.1077 H         1 PRO         0.0728
    138 H67        27.8152   52.5670   26.2336 H         1 PRO         0.0306
    139 H68        27.3859   54.1126   25.4251 H         1 PRO         0.0306
    140 H69        25.9856   52.6988   27.6811 H         1 PRO         0.0286
    141 H70        25.3505   53.9580   26.5686 H         1 PRO         0.0286
    142 H71        26.5307   54.2902   29.3038 H         1 PRO         0.0524
    143 H72        25.5677   55.4618   28.3411 H         1 PRO         0.0524
@<TRIPOS>BOND
     1    2    1 1  
     2    2    5 1  
     3    3    2 1  
     4    3    4 2  
     5    5    6 1  
     6    6    7 1  
     7    1    7 1  
     8    9    8 1  
     9    9   12 1  
    10   10    9 1  
    11   10   11 2  
    12   12   13 1  
    13   13   14 1  
    14    8   14 1  
    15   16   15 1  
    16   16   19 1  
    17   17   16 1  
    18   17   18 2  
    19   19   20 1  
    20   20   21 1  
    21   15   21 1  
    22   23   22 1  
    23   23   26 1  
    24   24   23 1  
    25   24   25 2  
    26   26   27 1  
    27   27   28 1  
    28   22   28 1  
    29   30   29 1  
    30   30   33 1  
    31   31   30 1  
    32   31   32 2  
    33   33   34 1  
    34   34   35 1  
    35   29   35 1  
    36   37   36 1  
    37   37   40 1  
    38   38   37 1  
    39   38   39 2  
    40   40   41 1  
    41   41   42 1  
    42   36   42 1  
    43   44   43 1  
    44   44   47 1  
    45   45   44 1  
    46   45   46 2  
    47   47   48 1  
    48   48   49 1  
    49   43   49 1  
    50   51   50 1  
    51   51   54 1  
    52   52   51 1  
    53   52   53 2  
    54   54   55 1  
    55   55   56 1  
    56   50   56 1  
    57   58   57 1  
    58   58   61 1  
    59   59   58 1  
    60   59   60 2  
    61   61   62 1  
    62   62   63 1  
    63   57   63 1  
    64   64   65 1  
    65   65   68 1  
    66   65   66 1  
    67   66   67 ar 
    68   66   71 ar 
    69   69   68 1  
    70   70   69 1  
    71   64   70 1  
    72    8    3 am 
    73   15   10 am 
    74   22   17 am 
    75   29   24 am 
    76   36   31 am 
    77   43   38 am 
    78   50   45 am 
    79   57   52 am 
    80   59   64 am 
    81    1   72 1  
    82    1   73 1  
    83    2   74 1  
    84    5   75 1  
    85    5   76 1  
    86    6   77 1  
    87    6   78 1  
    88    7   79 1  
    89    7   80 1  
    90    9   81 1  
    91   12   82 1  
    92   12   83 1  
    93   13   84 1  
    94   13   85 1  
    95   14   86 1  
    96   14   87 1  
    97   16   88 1  
    98   19   89 1  
    99   19   90 1  
   100   20   91 1  
   101   20   92 1  
   102   21   93 1  
   103   21   94 1  
   104   23   95 1  
   105   26   96 1  
   106   26   97 1  
   107   27   98 1  
   108   27   99 1  
   109   28  100 1  
   110   28  101 1  
   111   30  102 1  
   112   33  103 1  
   113   33  104 1  
   114   34  105 1  
   115   34  106 1  
   116   35  107 1  
   117   35  108 1  
   118   37  109 1  
   119   40  110 1  
   120   40  111 1  
   121   41  112 1  
   122   41  113 1  
   123   42  114 1  
   124   42  115 1  
   125   44  116 1  
   126   47  117 1  
   127   47  118 1  
   128   48  119 1  
   129   48  120 1  
   130   49  121 1  
   131   49  122 1  
   132   51  123 1  
   133   54  124 1  
   134   54  125 1  
   135   55  126 1  
   136   55  127 1  
   137   56  128 1  
   138   56  129 1  
   139   58  130 1  
   140   61  131 1  
   141   61  132 1  
   142   62  133 1  
   143   62  134 1  
   144   63  135 1  
   145   63  136 1  
   146   65  137 1  
   147   68  138 1  
   148   68  139 1  
   149   69  140 1  
   150   69  141 1  
   151   70  142 1  
   152   70  143 1  
@<TRIPOS>SUBSTRUCTURE
     1 PRO         1

