### 
### Created by X-TOOL on Mon Sep 10 21:12:46 2018
### 

@<TRIPOS>MOLECULE
1ax0_ligand
   30    30     1     0     0
SMALL
GAST_HUCK


@<TRIPOS>ATOM
      1 C1         17.1550   -1.2410   36.3640 C.3       1 A2G         0.1823
      2 C2         16.0900   -0.6370   35.4390 C.3       1 A2G         0.1208
      3 C3         14.7130   -1.2450   35.7220 C.3       1 A2G         0.1110
      4 C4         14.8010   -2.7670   35.6700 C.3       1 A2G         0.1116
      5 C5         15.8730   -3.2350   36.6450 C.3       1 A2G         0.1130
      6 C6         16.0380   -4.7420   36.6550 C.3       1 A2G         0.0730
      7 C7         16.1870    1.6330   34.6300 C.2       1 A2G         0.1733
      8 C8         16.1100    3.1200   34.9420 C.3       1 A2G         0.0257
      9 N2         16.0300    0.7960   35.6500 N.am      1 A2G        -0.2766
     10 O1         16.8900   -0.8870   37.6750 O.3       1 A2G        -0.3651
     11 O3         13.7740   -0.7820   34.7560 O.3       1 A2G        -0.3867
     12 O4         15.1410   -3.1810   34.3550 O.3       1 A2G        -0.3865
     13 O5         17.1480   -2.6690   36.2790 O.3       1 A2G        -0.3410
     14 O6         16.8280   -5.1560   37.7590 O.3       1 A2G        -0.3924
     15 O7         16.3880    1.2560   33.4760 O.2       1 A2G        -0.3974
     16 H1         18.1448   -0.8611   36.0708 H         1 A2G         0.0932
     17 H2         16.3649   -0.8410   34.3936 H         1 A2G         0.0633
     18 H3         14.3812   -0.9367   36.7244 H         1 A2G         0.0645
     19 H4         13.8308   -3.2021   35.9519 H         1 A2G         0.0647
     20 H5         15.5965   -2.8985   37.6551 H         1 A2G         0.0647
     21 H6         16.5287   -5.0571   35.7223 H         1 A2G         0.0584
     22 H7         15.0463   -5.2128   36.7248 H         1 A2G         0.0584
     23 H8         16.2555    3.6968   34.0167 H         1 A2G         0.0467
     24 H9         16.8951    3.3840   35.6658 H         1 A2G         0.0467
     25 H10        15.1238    3.3545   35.3690 H         1 A2G         0.0467
     26 H11        15.8695    1.1568   36.5687 H         1 A2G         0.1857
     27 H12        17.5590   -1.2524   38.2419 H         1 A2G         0.2126
     28 H13        12.9223   -1.1621   34.9364 H         1 A2G         0.2100
     29 H14        14.4743   -2.8823   33.7478 H         1 A2G         0.2100
     30 H15        16.9182   -6.1016   37.7455 H         1 A2G         0.2095
@<TRIPOS>BOND
     1    1   13 1  
     2    1   10 1  
     3    1    2 1  
     4    2    9 1  
     5    2    3 1  
     6    3   11 1  
     7    3    4 1  
     8    4   12 1  
     9    4    5 1  
    10   13    5 1  
    11    5    6 1  
    12    6   14 1  
    13    9    7 am 
    14    7   15 2  
    15    7    8 1  
    16    1   16 1  
    17    2   17 1  
    18    3   18 1  
    19    4   19 1  
    20    5   20 1  
    21    6   21 1  
    22    6   22 1  
    23    8   23 1  
    24    8   24 1  
    25    8   25 1  
    26    9   26 1  
    27   10   27 1  
    28   11   28 1  
    29   12   29 1  
    30   14   30 1  
@<TRIPOS>SUBSTRUCTURE
     1 A2G         1

