### 
### Created by X-TOOL on Fri Nov 18 12:14:56 2016
### 

@<TRIPOS>MOLECULE
1ax1_ligand
   45    46     1     0     0
SMALL
GAST_HUCK


@<TRIPOS>ATOM
      1 C1         22.2230   -1.4550   37.6430 C.3       1 MOL         0.1854
      2 C2         21.3570   -2.7070   37.7600 C.3       1 MOL         0.1339
      3 C3         20.1380   -2.5830   36.8560 C.3       1 MOL         0.1144
      4 C4         19.3890   -1.2770   37.1580 C.3       1 MOL         0.1184
      5 C5         20.3620   -0.0970   37.0920 C.3       1 MOL         0.1134
      6 C6         19.7300    1.2320   37.4530 C.3       1 MOL         0.0730
      7 O1         23.2830   -1.5370   38.5260 O.3       1 MOL        -0.3649
      8 O2         22.1080   -3.8570   37.3910 O.3       1 MOL        -0.3841
      9 O3         19.2870   -3.6970   37.0700 O.3       1 MOL        -0.3864
     10 O4         18.3510   -1.0730   36.1800 O.3       1 MOL        -0.3401
     11 O5         21.4570   -0.3050   37.9940 O.3       1 MOL        -0.3407
     12 O6         18.8250    1.0920   38.5380 O.3       1 MOL        -0.3924
     13 C1         17.0640   -1.4660   36.5050 C.3       1 MOL         0.1884
     14 C2         16.0880   -0.8130   35.5200 C.3       1 MOL         0.1341
     15 C3         14.6730   -1.3640   35.7160 C.3       1 MOL         0.1141
     16 C4         14.7090   -2.8860   35.5940 C.3       1 MOL         0.1119
     17 C5         15.6880   -3.4240   36.6310 C.3       1 MOL         0.1130
     18 C6         15.8030   -4.9310   36.6130 C.3       1 MOL         0.0730
     19 O2         16.0910    0.5950   35.7020 O.3       1 MOL        -0.3841
     20 O3         13.8010   -0.8210   34.7360 O.3       1 MOL        -0.3864
     21 O4         15.1340   -3.2600   34.2860 O.3       1 MOL        -0.3865
     22 O5         17.0070   -2.8950   36.3840 O.3       1 MOL        -0.3405
     23 O6         16.7230   -5.3740   37.5930 O.3       1 MOL        -0.3924
     24 H1         22.5967   -1.3591   36.6129 H         1 MOL         0.0935
     25 H2         21.0227   -2.8151   38.8024 H         1 MOL         0.0671
     26 H3         20.4650   -2.5739   35.8058 H         1 MOL         0.0648
     27 H4         18.9443   -1.3341   38.1625 H         1 MOL         0.0651
     28 H5         20.7474   -0.0329   36.0637 H         1 MOL         0.0647
     29 H6         19.1855    1.6196   36.5793 H         1 MOL         0.0584
     30 H7         20.5220    1.9411   37.7356 H         1 MOL         0.0584
     31 H8         23.8131   -0.7517   38.4565 H         1 MOL         0.2126
     32 H9         22.3907   -3.7729   36.4880 H         1 MOL         0.2101
     33 H10        18.5318   -3.6317   36.4975 H         1 MOL         0.2100
     34 H11        18.4444    1.9381   38.7427 H         1 MOL         0.2095
     35 H12        16.8175   -1.1627   37.5332 H         1 MOL         0.0938
     36 H13        16.4159   -1.0398   34.4948 H         1 MOL         0.0671
     37 H14        14.3094   -1.0869   36.7165 H         1 MOL         0.0648
     38 H15        13.7061   -3.2967   35.7826 H         1 MOL         0.0647
     39 H16        15.3456   -3.1057   37.6267 H         1 MOL         0.0647
     40 H17        16.1489   -5.2550   35.6203 H         1 MOL         0.0584
     41 H18        14.8161   -5.3710   36.8191 H         1 MOL         0.0584
     42 H19        15.5084    0.9964   35.0681 H         1 MOL         0.2101
     43 H20        12.9259   -1.1670   34.8658 H         1 MOL         0.2100
     44 H21        14.5194   -2.9214   33.6456 H         1 MOL         0.2100
     45 H22        17.5774   -4.9981   37.4165 H         1 MOL         0.2095
@<TRIPOS>BOND
     1    1    2 1  
     2    1    7 1  
     3    1   11 1  
     4    2    3 1  
     5    2    8 1  
     6    3    4 1  
     7    3    9 1  
     8    4    5 1  
     9    4   10 1  
    10    5    6 1  
    11    5   11 1  
    12    6   12 1  
    13   10   13 1  
    14   13   14 1  
    15   13   22 1  
    16   14   15 1  
    17   14   19 1  
    18   15   16 1  
    19   15   20 1  
    20   16   17 1  
    21   16   21 1  
    22   17   18 1  
    23   17   22 1  
    24   18   23 1  
    25    1   24 1  
    26    2   25 1  
    27    3   26 1  
    28    4   27 1  
    29    5   28 1  
    30    6   29 1  
    31    6   30 1  
    32    7   31 1  
    33    8   32 1  
    34    9   33 1  
    35   12   34 1  
    36   13   35 1  
    37   14   36 1  
    38   15   37 1  
    39   16   38 1  
    40   17   39 1  
    41   18   40 1  
    42   18   41 1  
    43   19   42 1  
    44   20   43 1  
    45   21   44 1  
    46   23   45 1  
@<TRIPOS>SUBSTRUCTURE
     1 MOL         1

