### 
### Created by X-TOOL on Fri Nov 18 12:14:13 2016
### 

@<TRIPOS>MOLECULE
1ax2_ligand
   51    52     1     0     0
SMALL
GAST_HUCK


@<TRIPOS>ATOM
      1 C1         22.1420   -1.2760   37.9780 C.3       1 MOL         0.1823
      2 C2         21.3360   -2.5720   38.0240 C.3       1 MOL         0.1208
      3 C3         20.1530   -2.5140   37.0560 C.3       1 MOL         0.1114
      4 C4         19.3240   -1.2470   37.3080 C.3       1 MOL         0.1181
      5 C5         20.2510   -0.0290   37.2680 C.3       1 MOL         0.1133
      6 C6         19.5530    1.2890   37.5310 C.3       1 MOL         0.0730
      7 C7         22.6230   -4.5170   38.6240 C.2       1 MOL         0.1733
      8 C8         23.5030   -5.6720   38.1720 C.3       1 MOL         0.0257
      9 N2         22.1850   -3.6950   37.6770 N.am      1 MOL        -0.2766
     10 O1         22.6700   -1.1020   36.7080 O.3       1 MOL        -0.3651
     11 O3         19.3470   -3.6700   37.2350 O.3       1 MOL        -0.3867
     12 O4         18.3090   -1.1080   36.2890 O.3       1 MOL        -0.3401
     13 O5         21.2880   -0.1660   38.2550 O.3       1 MOL        -0.3409
     14 O6         18.6830    1.1950   38.6480 O.3       1 MOL        -0.3924
     15 O7         22.3490   -4.3740   39.8210 O.2       1 MOL        -0.3974
     16 C1         17.0120   -1.4920   36.6080 C.3       1 MOL         0.1884
     17 C2         16.0380   -0.8430   35.6150 C.3       1 MOL         0.1341
     18 C3         14.6200   -1.3930   35.8020 C.3       1 MOL         0.1141
     19 C4         14.6500   -2.9150   35.7080 C.3       1 MOL         0.1119
     20 C5         15.6260   -3.4420   36.7510 C.3       1 MOL         0.1130
     21 C6         15.7380   -4.9520   36.7380 C.3       1 MOL         0.0730
     22 O2         16.0370    0.5660   35.7960 O.3       1 MOL        -0.3841
     23 O3         13.7610   -0.8680   34.8000 O.3       1 MOL        -0.3864
     24 O4         15.0740   -3.3110   34.4070 O.3       1 MOL        -0.3865
     25 O5         16.9460   -2.9200   36.5020 O.3       1 MOL        -0.3405
     26 O6         16.7050   -5.3870   37.6770 O.3       1 MOL        -0.3924
     27 H1         22.9533   -1.3193   38.7196 H         1 MOL         0.0932
     28 H2         20.9530   -2.7137   39.0454 H         1 MOL         0.0633
     29 H3         20.5318   -2.4940   36.0235 H         1 MOL         0.0645
     30 H4         18.8438   -1.3135   38.2954 H         1 MOL         0.0650
     31 H5         20.7072    0.0140   36.2680 H         1 MOL         0.0647
     32 H6         18.9675    1.5684   36.6427 H         1 MOL         0.0584
     33 H7         20.3096    2.0623   37.7297 H         1 MOL         0.0584
     34 H8         23.7964   -6.2730   39.0453 H         1 MOL         0.0467
     35 H9         24.4037   -5.2761   37.6801 H         1 MOL         0.0467
     36 H10        22.9455   -6.3024   37.4637 H         1 MOL         0.0467
     37 H11        22.4412   -3.8509   36.7230 H         1 MOL         0.1857
     38 H12        21.9629   -1.0647   36.0746 H         1 MOL         0.2126
     39 H13        18.6205   -3.6459   36.6234 H         1 MOL         0.2100
     40 H14        18.2597    2.0335   38.7897 H         1 MOL         0.2095
     41 H15        16.7626   -1.1779   37.6323 H         1 MOL         0.0938
     42 H16        16.3725   -1.0710   34.5922 H         1 MOL         0.0671
     43 H17        14.2437   -1.0972   36.7924 H         1 MOL         0.0648
     44 H18        13.6454   -3.3181   35.9034 H         1 MOL         0.0647
     45 H19        15.2826   -3.1165   37.7440 H         1 MOL         0.0647
     46 H20        16.0354   -5.2841   35.7324 H         1 MOL         0.0584
     47 H21        14.7620   -5.3894   36.9949 H         1 MOL         0.0584
     48 H22        16.9187    0.8999   35.6787 H         1 MOL         0.2101
     49 H23        12.8834   -1.2091   34.9263 H         1 MOL         0.2100
     50 H24        14.4615   -2.9794   33.7609 H         1 MOL         0.2100
     51 H25        17.5498   -5.0129   37.4563 H         1 MOL         0.2095
@<TRIPOS>BOND
     1    2    1 1  
     2    1   10 1  
     3    1   13 1  
     4    2    3 1  
     5    9    2 1  
     6    3    4 1  
     7    3   11 1  
     8    4    5 1  
     9    4   12 1  
    10    5    6 1  
    11   13    5 1  
    12    6   14 1  
    13    7    8 1  
    14    7    9 am 
    15    7   15 2  
    16   12   16 1  
    17   16   17 1  
    18   16   25 1  
    19   17   18 1  
    20   17   22 1  
    21   18   19 1  
    22   18   23 1  
    23   19   20 1  
    24   19   24 1  
    25   20   21 1  
    26   20   25 1  
    27   21   26 1  
    28    1   27 1  
    29    2   28 1  
    30    3   29 1  
    31    4   30 1  
    32    5   31 1  
    33    6   32 1  
    34    6   33 1  
    35    8   34 1  
    36    8   35 1  
    37    8   36 1  
    38    9   37 1  
    39   10   38 1  
    40   11   39 1  
    41   14   40 1  
    42   16   41 1  
    43   17   42 1  
    44   18   43 1  
    45   19   44 1  
    46   20   45 1  
    47   21   46 1  
    48   21   47 1  
    49   22   48 1  
    50   23   49 1  
    51   24   50 1  
    52   26   51 1  
@<TRIPOS>SUBSTRUCTURE
     1 MOL         1

