### 
### Created by X-TOOL on Mon Sep 10 21:12:46 2018
### 

@<TRIPOS>MOLECULE
1axr_ligand
   25    26     1     0     0
SMALL
GAST_HUCK


@<TRIPOS>ATOM
      1 C1         34.1300   22.4540   27.2440 C.2       1 HTP         0.1216
      2 C2         34.0150   22.8750   25.7920 C.3       1 HTP         0.1473
      3 C3         32.6100   22.4600   25.2760 C.3       1 HTP         0.1234
      4 C4         32.3490   20.9990   25.6100 C.3       1 HTP         0.1205
      5 C5         32.1530   20.8530   27.1400 C.3       1 HTP         0.1390
      6 C6         32.0400   19.4280   27.6180 C.3       1 HTP         0.0797
      7 C7         35.0110   22.8020   28.2190 C.2       1 HTP         0.0207
      8 N17        33.6460   21.2760   29.1170 N.2       1 HTP        -0.1091
      9 N18        34.7380   22.1040   29.3320 N.2       1 HTP        -0.2427
     10 N1         33.2430   21.4890   27.8060 N.pl3     1 HTP        -0.1608
     11 O2         34.2970   24.2490   25.5610 O.3       1 HTP        -0.3723
     12 O3         32.5880   22.6280   23.8830 O.3       1 HTP        -0.3841
     13 O4         31.2450   20.4370   24.9220 O.3       1 HTP        -0.3856
     14 O6         33.1410   18.7010   27.0730 O.3       1 HTP        -0.3917
     15 H1         34.7626   22.3022   25.2236 H         1 HTP         0.0832
     16 H2         31.8387   23.0900   25.7430 H         1 HTP         0.0673
     17 H3         33.2428   20.4275   25.3193 H         1 HTP         0.0656
     18 H4         31.2213   21.3713   27.4105 H         1 HTP         0.0732
     19 H5         31.0927   18.9899   27.2707 H         1 HTP         0.0591
     20 H6         32.0773   19.3970   28.7169 H         1 HTP         0.0591
     21 H7         35.8120   23.5322   28.1134 H         1 HTP         0.0437
     22 H8         35.1634   24.4534   25.8926 H         1 HTP         0.2136
     23 H9         32.7508   23.5400   23.6725 H         1 HTP         0.2103
     24 H10        30.4498   20.8883   25.1795 H         1 HTP         0.2100
     25 H11        33.9547   19.0881   27.3739 H         1 HTP         0.2095
@<TRIPOS>BOND
     1    1    2 1  
     2    1    7 2  
     3    1   10 1  
     4    2    3 1  
     5    2   11 1  
     6    3    4 1  
     7    3   12 1  
     8    4    5 1  
     9    4   13 1  
    10    5    6 1  
    11    5   10 1  
    12    6   14 1  
    13    7    9 1  
    14    9    8 2  
    15    8   10 1  
    16    2   15 1  
    17    3   16 1  
    18    4   17 1  
    19    5   18 1  
    20    6   19 1  
    21    6   20 1  
    22    7   21 1  
    23   11   22 1  
    24   12   23 1  
    25   13   24 1  
    26   14   25 1  
@<TRIPOS>SUBSTRUCTURE
     1 HTP         1

