### 
### Created by X-TOOL on Mon Sep 10 21:12:46 2018
### 

@<TRIPOS>MOLECULE
1axs_ligand
   54    56     1     0     0
SMALL
GAST_HUCK


@<TRIPOS>ATOM
      1 C1         10.2640   -2.3220   61.3000 C.ar      1 HOP        -0.0687
      2 C2          8.8770   -2.4380   61.0240 C.ar      1 HOP        -0.0686
      3 C6         11.2140   -2.6850   60.3160 C.ar      1 HOP        -0.0686
      4 C5         10.7710   -3.1700   59.0570 C.ar      1 HOP        -0.0601
      5 C4          9.3650   -3.2970   58.7640 C.ar      1 HOP        -0.0399
      6 C3          8.4280   -2.9230   59.7650 C.ar      1 HOP        -0.0601
      7 C7          8.8860   -3.8530   57.3870 C.3       1 HOP        -0.0047
      8 C12         9.0180   -5.4180   57.2820 C.3       1 HOP        -0.0121
      9 C11         8.5700   -5.9780   55.8900 C.3       1 HOP         0.0702
     10 C10         9.4040   -5.3120   54.7390 C.3       1 HOP         0.0211
     11 C9          9.2030   -3.7530   54.8030 C.3       1 HOP        -0.0353
     12 C8          9.6230   -3.1780   56.1920 C.3       1 HOP        -0.0381
     13 C13         9.0560   -5.8510   53.3020 C.ar      1 HOP        -0.0328
     14 C14         7.7920   -5.6750   52.6430 C.ar      1 HOP        -0.0541
     15 C15         7.5940   -6.2030   51.3190 C.ar      1 HOP        -0.0485
     16 C16         8.6520   -6.9140   50.6270 C.ar      1 HOP         0.0427
     17 C17         9.8940   -7.0700   51.3130 C.ar      1 HOP        -0.0485
     18 C18        10.0910   -6.5520   52.6150 C.ar      1 HOP        -0.0541
     19 O19         8.7220   -7.3970   55.8890 O.3       1 HOP        -0.3892
     20 C20         8.4890   -7.4960   49.2060 C.2       1 HOP         0.1999
     21 O21         9.4390   -8.0950   48.6700 O.2       1 HOP        -0.3878
     22 N22         7.3010   -7.3580   48.5210 N.am      1 HOP        -0.2870
     23 C23         7.0740   -7.8980   47.1410 C.3       1 HOP         0.0318
     24 C24         6.0960   -7.0030   46.3370 C.3       1 HOP        -0.0212
     25 C25         6.6660   -6.5530   44.9580 C.3       1 HOP         0.0020
     26 C26         6.5820   -7.6010   43.8300 C.2       1 HOP         0.0349
     27 O27         5.5440   -8.1780   43.4800 O.co2     1 HOP        -0.5690
     28 O28         7.7940   -7.8240   43.2430 O.co2     1 HOP        -0.5690
     29 H1         10.5959   -1.9553   62.2646 H         1 HOP         0.0559
     30 H2          8.1533   -2.1544   61.7796 H         1 HOP         0.0599
     31 H3         12.2743   -2.5933   60.5222 H         1 HOP         0.0599
     32 H4         11.5005   -3.4488   58.3053 H         1 HOP         0.0557
     33 H5          7.3655   -3.0079   59.5677 H         1 HOP         0.0557
     34 H6          7.8176   -3.6073   57.2972 H         1 HOP         0.0462
     35 H7          8.3917   -5.8757   58.0619 H         1 HOP         0.0317
     36 H8         10.0700   -5.6930   57.4482 H         1 HOP         0.0317
     37 H9          7.5081   -5.7371   55.7341 H         1 HOP         0.0622
     38 H10        10.4654   -5.5332   54.9246 H         1 HOP         0.0497
     39 H11         8.1421   -3.5219   54.6267 H         1 HOP         0.0293
     40 H12         9.8160   -3.2813   54.0209 H         1 HOP         0.0293
     41 H13        10.7052   -3.3285   56.3193 H         1 HOP         0.0292
     42 H14         9.3983   -2.1013   56.2065 H         1 HOP         0.0292
     43 H15         6.9886   -5.1454   53.1421 H         1 HOP         0.0570
     44 H16         6.6363   -6.0668   50.8298 H         1 HOP         0.0652
     45 H17        10.7054   -7.5977   50.8250 H         1 HOP         0.0652
     46 H18        11.0499   -6.6910   53.1012 H         1 HOP         0.0570
     47 H19         9.6379   -7.6164   56.0138 H         1 HOP         0.2100
     48 H20         6.5504   -6.8717   48.9684 H         1 HOP         0.1843
     49 H21         6.6513   -8.9106   47.2180 H         1 HOP         0.0520
     50 H22         8.0369   -7.9419   46.6110 H         1 HOP         0.0520
     51 H23         5.8737   -6.1055   46.9328 H         1 HOP         0.0302
     52 H24         5.1679   -7.5674   46.1640 H         1 HOP         0.0302
     53 H25         7.7250   -6.2908   45.0985 H         1 HOP         0.0431
     54 H26         6.1074   -5.6622   44.6349 H         1 HOP         0.0431
@<TRIPOS>BOND
     1    1    2 ar 
     2    1    3 ar 
     3    2    6 ar 
     4    3    4 ar 
     5    4    5 ar 
     6    5    6 ar 
     7    5    7 1  
     8    7    8 1  
     9    7   12 1  
    10    8    9 1  
    11    9   10 1  
    12    9   19 1  
    13   10   11 1  
    14   10   13 1  
    15   11   12 1  
    16   13   14 ar 
    17   13   18 ar 
    18   14   15 ar 
    19   15   16 ar 
    20   16   17 ar 
    21   16   20 1  
    22   17   18 ar 
    23   20   21 2  
    24   20   22 am 
    25   22   23 1  
    26   23   24 1  
    27   24   25 1  
    28   25   26 1  
    29   26   27 ar 
    30   26   28 ar 
    31    1   29 1  
    32    2   30 1  
    33    3   31 1  
    34    4   32 1  
    35    6   33 1  
    36    7   34 1  
    37    8   35 1  
    38    8   36 1  
    39    9   37 1  
    40   10   38 1  
    41   11   39 1  
    42   11   40 1  
    43   12   41 1  
    44   12   42 1  
    45   14   43 1  
    46   15   44 1  
    47   17   45 1  
    48   18   46 1  
    49   19   47 1  
    50   22   48 1  
    51   23   49 1  
    52   23   50 1  
    53   24   51 1  
    54   24   52 1  
    55   25   53 1  
    56   25   54 1  
@<TRIPOS>SUBSTRUCTURE
     1 HOP         1

