### 
### Created by X-TOOL on Fri Nov 18 12:16:39 2016
### 

@<TRIPOS>MOLECULE
1axz_ligand
   24    24     1     0     0
SMALL
GAST_HUCK


@<TRIPOS>ATOM
      1 C1         16.9890   -1.2610   36.5220 C.3       1 GAL         0.1854
      2 C2         16.0000   -0.6800   35.5100 C.3       1 GAL         0.1339
      3 C3         14.6050   -1.2400   35.7680 C.3       1 GAL         0.1141
      4 C4         14.6550   -2.7660   35.7620 C.3       1 GAL         0.1119
      5 C5         15.7010   -3.2540   36.7620 C.3       1 GAL         0.1130
      6 C6         15.8620   -4.7600   36.7480 C.3       1 GAL         0.0730
      7 O1         18.2680   -0.8220   36.2290 O.3       1 GAL        -0.3649
      8 O2         15.9770    0.7360   35.6220 O.3       1 GAL        -0.3841
      9 O3         13.7100   -0.7840   34.7630 O.3       1 GAL        -0.3864
     10 O4         14.9850   -3.2320   34.4610 O.3       1 GAL        -0.3865
     11 O5         16.9880   -2.6890   36.4490 O.3       1 GAL        -0.3407
     12 O6         16.7250   -5.1870   37.7910 O.3       1 GAL        -0.3924
     13 H1         16.7062   -0.9398   37.5353 H         1 GAL         0.0935
     14 H2         16.3180   -0.9573   34.4941 H         1 GAL         0.0671
     15 H3         14.2520   -0.8935   36.7505 H         1 GAL         0.0648
     16 H4         13.6690   -3.1607   36.0484 H         1 GAL         0.0647
     17 H5         15.3945   -2.9354   37.7692 H         1 GAL         0.0647
     18 H6         16.2862   -5.0679   35.7809 H         1 GAL         0.0584
     19 H7         14.8760   -5.2289   36.8819 H         1 GAL         0.0584
     20 H8         18.8785   -1.1848   36.8601 H         1 GAL         0.2126
     21 H9         16.8452    1.0804   35.4482 H         1 GAL         0.2101
     22 H10        12.8433   -1.1359   34.9290 H         1 GAL         0.2100
     23 H11        14.3263   -2.9364   33.8434 H         1 GAL         0.2100
     24 H12        16.8107   -6.1327   37.7624 H         1 GAL         0.2095
@<TRIPOS>BOND
     1   11    1 1  
     2    1    7 1  
     3    1    2 1  
     4    2    8 1  
     5    2    3 1  
     6    3    9 1  
     7    3    4 1  
     8    4   10 1  
     9    4    5 1  
    10    5   11 1  
    11    5    6 1  
    12    6   12 1  
    13    1   13 1  
    14    2   14 1  
    15    3   15 1  
    16    4   16 1  
    17    5   17 1  
    18    6   18 1  
    19    6   19 1  
    20    7   20 1  
    21    8   21 1  
    22    9   22 1  
    23   10   23 1  
    24   12   24 1  
@<TRIPOS>SUBSTRUCTURE
     1 GAL         1

