### 
### Created by X-TOOL on Mon Sep 10 21:12:46 2018
### 

@<TRIPOS>MOLECULE
1ayu_ligand
   86    87     1     0     0
SMALL
GAST_HUCK


@<TRIPOS>ATOM
      1 C1        -28.2820   -9.3100   55.9360 C.ar      1 INA        -0.0687
      2 C2        -28.0700   -9.0330   57.3050 C.ar      1 INA        -0.0685
      3 C3        -27.1110   -9.7750   58.0320 C.ar      1 INA        -0.0578
      4 C4        -26.3680  -10.7820   57.4040 C.ar      1 INA        -0.0130
      5 C5        -26.5940  -11.0480   56.0460 C.ar      1 INA        -0.0578
      6 C6        -27.5420  -10.3210   55.3100 C.ar      1 INA        -0.0685
      7 C7        -25.3120  -11.5370   58.1580 C.3       1 INA         0.1113
      8 O8        -24.1910  -11.6800   57.2390 O.3       1 INA        -0.2506
      9 C9        -23.2880  -12.7900   57.2000 C.2       1 INA         0.3239
     10 O10       -22.4970  -12.9940   58.1330 O.2       1 INA        -0.3773
     11 C11       -22.4530  -14.7080   55.8770 C.3       1 INA         0.1373
     12 C12       -21.0470  -14.4730   56.4770 C.3       1 INA        -0.0099
     13 C13       -20.1070  -13.3840   55.9210 C.3       1 INA        -0.0425
     14 C14       -19.1460  -12.9150   57.0060 C.3       1 INA        -0.0625
     15 C15       -20.8270  -12.1730   55.2290 C.3       1 INA        -0.0625
     16 C16       -23.0030  -16.0560   56.3450 C.2       1 INA         0.2389
     17 O17       -24.1580  -16.1470   56.7540 O.2       1 INA        -0.3898
     18 N18       -22.1920  -17.1740   56.3040 N.am      1 INA        -0.2435
     19 N19       -22.6240  -18.5340   56.7420 N.4       1 INA         0.4136
     20 N20       -23.3360  -13.5520   56.1020 N.am      1 INA        -0.2409
     21 C21       -22.0890  -18.8520   58.1360 C.3       1 INA         0.1595
     22 O22       -22.1020  -17.8040   58.7500 O.3       1 INA        -0.3109
     23 C23       -12.7780  -27.3050   59.7650 C.ar      1 INA        -0.0687
     24 C24       -13.7500  -26.7990   60.6230 C.ar      1 INA        -0.0685
     25 C25       -14.6140  -25.7910   60.1720 C.ar      1 INA        -0.0578
     26 C26       -14.5160  -25.2870   58.8790 C.ar      1 INA        -0.0130
     27 C27       -13.5360  -25.8050   58.0310 C.ar      1 INA        -0.0578
     28 C28       -12.6670  -26.8090   58.4710 C.ar      1 INA        -0.0685
     29 C29       -15.4520  -24.2110   58.4000 C.3       1 INA         0.1113
     30 O30       -16.5230  -24.5800   57.4870 O.3       1 INA        -0.2506
     31 C31       -17.5580  -23.6630   57.0520 C.2       1 INA         0.3239
     32 O32       -17.3200  -22.7410   56.2670 O.2       1 INA        -0.3773
     33 C33       -19.9480  -23.0860   57.1840 C.3       1 INA         0.1373
     34 C34       -21.2310  -23.9020   57.3480 C.3       1 INA        -0.0099
     35 C35       -21.1050  -25.2520   58.0350 C.3       1 INA        -0.0425
     36 C36       -22.3150  -25.5920   58.8880 C.3       1 INA        -0.0625
     37 C37       -20.8400  -26.3110   56.9880 C.3       1 INA        -0.0625
     38 C38       -20.0660  -21.8310   58.0300 C.2       1 INA         0.2389
     39 O39       -19.7360  -21.8580   59.2160 O.2       1 INA        -0.3898
     40 N40       -20.5580  -20.7030   57.4300 N.am      1 INA        -0.2435
     41 N41       -20.7040  -19.4360   58.2090 N.4       1 INA         0.4136
     42 N42       -18.7790  -23.8960   57.5410 N.am      1 INA        -0.2409
     43 H1        -29.0140   -8.7427   55.3727 H         1 INA         0.0559
     44 H2        -28.6410   -8.2537   57.7966 H         1 INA         0.0599
     45 H3        -26.9498   -9.5629   59.0828 H         1 INA         0.0557
     46 H4        -26.0257  -11.8300   55.5555 H         1 INA         0.0557
     47 H5        -27.7011  -10.5411   54.2606 H         1 INA         0.0599
     48 H6        -25.6892  -12.5257   58.4582 H         1 INA         0.0776
     49 H7        -25.0045  -10.9749   59.0521 H         1 INA         0.0776
     50 H8        -22.3295  -14.7871   54.7868 H         1 INA         0.0801
     51 H9        -20.5065  -15.4266   56.3847 H         1 INA         0.0315
     52 H10       -21.1985  -14.2389   57.5411 H         1 INA         0.0315
     53 H11       -19.5016  -13.8665   55.1395 H         1 INA         0.0298
     54 H12       -18.4818  -12.1393   56.5972 H         1 INA         0.0232
     55 H13       -18.5437  -13.7665   57.3554 H         1 INA         0.0232
     56 H14       -19.7186  -12.5005   57.8488 H         1 INA         0.0232
     57 H15       -21.5111  -12.5477   54.4534 H         1 INA         0.0232
     58 H16       -20.0760  -11.5144   54.7683 H         1 INA         0.0232
     59 H17       -21.3985  -11.6082   55.9802 H         1 INA         0.0232
     60 H18       -21.2593  -17.0654   55.9601 H         1 INA         0.2386
     61 H19       -22.2732  -19.2179   56.0898 H         1 INA         0.2385
     62 H20       -23.6312  -18.5711   56.7585 H         1 INA         0.2385
     63 H21       -24.0072  -13.3244   55.3966 H         1 INA         0.1899
     64 H22       -22.7767  -19.5677   58.6101 H         1 INA         0.1868
     65 H23       -21.7757  -17.9499   59.6302 H         1 INA         0.2213
     66 H24       -12.1076  -28.0857   60.1056 H         1 INA         0.0559
     67 H25       -13.8385  -27.1817   61.6333 H         1 INA         0.0599
     68 H26       -15.3705  -25.3981   60.8416 H         1 INA         0.0557
     69 H27       -13.4472  -25.4249   57.0197 H         1 INA         0.0557
     70 H28       -11.9076  -27.2000   57.8035 H         1 INA         0.0599
     71 H29       -14.8403  -23.4503   57.8928 H         1 INA         0.0776
     72 H30       -15.9223  -23.7691   59.2908 H         1 INA         0.0776
     73 H31       -19.8477  -22.7876   56.1300 H         1 INA         0.0801
     74 H32       -21.6436  -24.0777   56.3436 H         1 INA         0.0315
     75 H33       -21.9376  -23.2959   57.9339 H         1 INA         0.0315
     76 H34       -20.2338  -25.2097   58.7052 H         1 INA         0.0298
     77 H35       -22.1675  -26.5755   59.3580 H         1 INA         0.0232
     78 H36       -23.2140  -25.6194   58.2548 H         1 INA         0.0232
     79 H37       -22.4396  -24.8274   59.6689 H         1 INA         0.0232
     80 H38       -19.9586  -26.0271   56.3942 H         1 INA         0.0232
     81 H39       -21.7145  -26.3998   56.3267 H         1 INA         0.0232
     82 H40       -20.6540  -27.2763   57.4816 H         1 INA         0.0232
     83 H41       -20.8210  -20.7270   56.4655 H         1 INA         0.2386
     84 H42       -20.4872  -19.6269   59.1747 H         1 INA         0.2385
     85 H43       -20.0513  -18.7593   57.8454 H         1 INA         0.2385
     86 H44       -18.9013  -24.6565   58.1788 H         1 INA         0.1899
@<TRIPOS>BOND
     1    2    1 ar 
     2    6    1 ar 
     3    3    2 ar 
     4    4    3 ar 
     5    4    5 ar 
     6    7    4 1  
     7    5    6 ar 
     8    8    7 1  
     9    9    8 1  
    10    9   10 2  
    11   20    9 am 
    12   11   12 1  
    13   16   11 1  
    14   11   20 1  
    15   12   13 1  
    16   13   14 1  
    17   13   15 1  
    18   16   17 2  
    19   18   16 am 
    20   19   18 1  
    21   21   19 1  
    22   21   22 1  
    23   41   21 1  
    24   24   23 ar 
    25   28   23 ar 
    26   25   24 ar 
    27   26   25 ar 
    28   26   27 ar 
    29   29   26 1  
    30   27   28 ar 
    31   30   29 1  
    32   31   30 1  
    33   31   32 2  
    34   42   31 am 
    35   33   34 1  
    36   38   33 1  
    37   33   42 1  
    38   34   35 1  
    39   35   36 1  
    40   35   37 1  
    41   38   39 2  
    42   40   38 am 
    43   40   41 1  
    44    1   43 1  
    45    2   44 1  
    46    3   45 1  
    47    5   46 1  
    48    6   47 1  
    49    7   48 1  
    50    7   49 1  
    51   11   50 1  
    52   12   51 1  
    53   12   52 1  
    54   13   53 1  
    55   14   54 1  
    56   14   55 1  
    57   14   56 1  
    58   15   57 1  
    59   15   58 1  
    60   15   59 1  
    61   18   60 1  
    62   19   61 1  
    63   19   62 1  
    64   20   63 1  
    65   21   64 1  
    66   22   65 1  
    67   23   66 1  
    68   24   67 1  
    69   25   68 1  
    70   27   69 1  
    71   28   70 1  
    72   29   71 1  
    73   29   72 1  
    74   33   73 1  
    75   34   74 1  
    76   34   75 1  
    77   35   76 1  
    78   36   77 1  
    79   36   78 1  
    80   36   79 1  
    81   37   80 1  
    82   37   81 1  
    83   37   82 1  
    84   40   83 1  
    85   41   84 1  
    86   41   85 1  
    87   42   86 1  
@<TRIPOS>SUBSTRUCTURE
     1 INA         1

