### 
### Created by X-TOOL on Mon Sep 10 21:12:46 2018
### 

@<TRIPOS>MOLECULE
1ayv_ligand
   85    87     1     0     0
SMALL
GAST_HUCK


@<TRIPOS>ATOM
      1 C1        -28.4950   -9.5230   55.7010 C.ar      1 IN6        -0.0687
      2 C2        -28.6290   -9.3340   57.0840 C.ar      1 IN6        -0.0685
      3 C3        -27.5560   -9.6270   57.9390 C.ar      1 IN6        -0.0578
      4 C4        -26.3510  -10.1050   57.4300 C.ar      1 IN6        -0.0130
      5 C5        -26.2280  -10.2880   56.0520 C.ar      1 IN6        -0.0578
      6 C6        -27.2900  -10.0010   55.1850 C.ar      1 IN6        -0.0685
      7 C7        -25.2000  -10.4050   58.3480 C.3       1 IN6         0.1113
      8 O8        -24.7270  -11.7650   58.3610 O.3       1 IN6        -0.2505
      9 C9        -24.0310  -12.4200   57.2970 C.2       1 IN6         0.3245
     10 O10       -24.3300  -12.2310   56.0980 O.2       1 IN6        -0.3773
     11 C11       -22.2660  -14.0130   56.7050 C.3       1 IN6         0.1138
     12 C12       -20.7750  -13.6250   56.8020 C.3       1 IN6        -0.0104
     13 C14       -20.1770  -12.6020   55.8160 C.3       1 IN6        -0.0420
     14 C15       -19.0060  -11.8290   56.4720 C.3       1 IN6        -0.0624
     15 C16       -21.2220  -11.6350   55.2260 C.3       1 IN6        -0.0624
     16 C17       -22.4980  -15.5900   56.8000 C.2       1 IN6         0.1144
     17 S18       -23.7840  -16.3150   55.9230 S.3       1 IN6        -0.0175
     18 N19       -21.7960  -16.5490   57.4980 N.2       1 IN6        -0.3079
     19 C20       -22.2080  -17.8720   57.3930 C.2       1 IN6         0.0619
     20 N24       -23.0540  -13.2500   57.6810 N.am      1 IN6        -0.2408
     21 C42       -23.2740  -17.8770   56.5510 C.2       1 IN6         0.0028
     22 C21       -21.5760  -19.1040   58.2420 C.3       1 IN6         0.1368
     23 O22       -21.3720  -18.3860   59.1690 O.3       1 IN6        -0.3421
     24 C1'       -13.7850  -23.5080   54.9590 C.ar      1 IN6        -0.0687
     25 C2'       -14.2320  -22.8380   56.0770 C.ar      1 IN6        -0.0685
     26 C3'       -14.8330  -23.5440   57.1180 C.ar      1 IN6        -0.0578
     27 C4'       -14.9980  -24.9290   57.0420 C.ar      1 IN6        -0.0130
     28 C5'       -14.5350  -25.6040   55.9080 C.ar      1 IN6        -0.0578
     29 C6'       -13.9350  -24.9010   54.8660 C.ar      1 IN6        -0.0685
     30 C7'       -15.7230  -25.6710   58.1370 C.3       1 IN6         0.1113
     31 O8'       -17.1020  -25.9300   57.7090 O.3       1 IN6        -0.2506
     32 C9'       -17.9100  -25.0280   56.9620 C.2       1 IN6         0.3239
     33 O33       -17.6900  -24.8100   55.7720 O.2       1 IN6        -0.3773
     34 C34       -19.8220  -23.4920   57.0000 C.3       1 IN6         0.1373
     35 C35       -21.2170  -24.1180   56.8380 C.3       1 IN6        -0.0099
     36 C36       -21.9190  -24.8870   57.9680 C.3       1 IN6        -0.0425
     37 C37       -21.4350  -26.3070   58.1210 C.3       1 IN6        -0.0625
     38 C38       -21.8650  -24.1530   59.2870 C.3       1 IN6        -0.0625
     39 C39       -19.8670  -22.1490   57.7600 C.2       1 IN6         0.2387
     40 O40       -19.6040  -22.1250   58.9620 O.2       1 IN6        -0.3898
     41 N41       -20.1820  -20.9960   57.0820 N.am      1 IN6        -0.2489
     42 N42       -20.1980  -19.6480   57.7800 N.4       1 IN6         0.3915
     43 N43       -18.9040  -24.4430   57.6330 N.am      1 IN6        -0.2409
     44 H1        -29.3222   -9.2992   55.0371 H         1 IN6         0.0559
     45 H2        -29.5615   -8.9616   57.4924 H         1 IN6         0.0599
     46 H3        -27.6660   -9.4798   59.0073 H         1 IN6         0.0557
     47 H4        -25.2941  -10.6588   55.6454 H         1 IN6         0.0557
     48 H5        -27.1762  -10.1497   54.1173 H         1 IN6         0.0599
     49 H6        -25.5132  -10.1502   59.3712 H         1 IN6         0.0776
     50 H7        -24.3589   -9.7614   58.0510 H         1 IN6         0.0776
     51 H8        -22.6131  -13.7079   55.7068 H         1 IN6         0.0817
     52 H9        -20.1973  -14.5537   56.6846 H         1 IN6         0.0322
     53 H10       -20.6176  -13.2206   57.8128 H         1 IN6         0.0322
     54 H11       -19.7616  -13.1744   54.9735 H         1 IN6         0.0298
     55 H12       -18.5951  -11.1059   55.7521 H         1 IN6         0.0232
     56 H13       -18.2193  -12.5381   56.7690 H         1 IN6         0.0232
     57 H14       -19.3720  -11.2940   57.3607 H         1 IN6         0.0232
     58 H15       -22.0388  -12.2125   54.7685 H         1 IN6         0.0232
     59 H16       -20.7465  -11.0034   54.4612 H         1 IN6         0.0232
     60 H17       -21.6266  -10.9990   56.0271 H         1 IN6         0.0232
     61 H18       -22.8559  -13.3530   58.6558 H         1 IN6         0.1908
     62 H19       -23.7857  -18.7991   56.2792 H         1 IN6         0.0506
     63 H20       -22.2820  -19.9294   58.4158 H         1 IN6         0.1331
     64 H21       -20.9545  -18.8799   59.8648 H         1 IN6         0.2181
     65 H22       -13.3169  -22.9589   54.1501 H         1 IN6         0.0559
     66 H23       -14.1164  -21.7625   56.1470 H         1 IN6         0.0599
     67 H24       -15.1766  -23.0115   57.9975 H         1 IN6         0.0557
     68 H25       -14.6437  -26.6804   55.8396 H         1 IN6         0.0557
     69 H26       -13.5848  -25.4278   53.9857 H         1 IN6         0.0599
     70 H27       -15.7298  -25.0618   59.0529 H         1 IN6         0.0776
     71 H28       -15.2134  -26.6255   58.3352 H         1 IN6         0.0776
     72 H29       -19.4368  -23.2813   55.9914 H         1 IN6         0.0801
     73 H30       -21.1395  -24.8200   55.9947 H         1 IN6         0.0315
     74 H31       -21.8915  -23.2924   56.5671 H         1 IN6         0.0315
     75 H32       -22.9799  -24.9480   57.6840 H         1 IN6         0.0298
     76 H33       -21.9791  -26.7931   58.9442 H         1 IN6         0.0232
     77 H34       -20.3579  -26.3053   58.3440 H         1 IN6         0.0232
     78 H35       -21.6151  -26.8585   57.1865 H         1 IN6         0.0232
     79 H36       -22.2225  -23.1221   59.1478 H         1 IN6         0.0232
     80 H37       -20.8284  -24.1351   59.6545 H         1 IN6         0.0232
     81 H38       -22.5048  -24.6672   60.0193 H         1 IN6         0.0232
     82 H39       -20.4053  -21.0459   56.1085 H         1 IN6         0.2383
     83 H40       -19.6123  -19.7228   58.5969 H         1 IN6         0.2326
     84 H41       -19.8033  -18.9728   57.1441 H         1 IN6         0.2326
     85 H42       -19.0268  -24.6610   58.6012 H         1 IN6         0.1899
@<TRIPOS>BOND
     1    2    1 ar 
     2    6    1 ar 
     3    3    2 ar 
     4    4    3 ar 
     5    4    5 ar 
     6    7    4 1  
     7    5    6 ar 
     8    8    7 1  
     9    9    8 1  
    10    9   10 2  
    11   20    9 am 
    12   11   12 1  
    13   16   11 1  
    14   11   20 1  
    15   12   13 1  
    16   13   14 1  
    17   13   15 1  
    18   17   16 1  
    19   18   16 2  
    20   21   17 1  
    21   19   18 1  
    22   19   21 2  
    23   22   19 1  
    24   22   23 1  
    25   42   22 1  
    26   25   24 ar 
    27   29   24 ar 
    28   26   25 ar 
    29   27   26 ar 
    30   27   28 ar 
    31   30   27 1  
    32   28   29 ar 
    33   31   30 1  
    34   32   31 1  
    35   32   33 2  
    36   43   32 am 
    37   34   35 1  
    38   39   34 1  
    39   34   43 1  
    40   35   36 1  
    41   36   37 1  
    42   36   38 1  
    43   39   40 2  
    44   41   39 am 
    45   41   42 1  
    46    1   44 1  
    47    2   45 1  
    48    3   46 1  
    49    5   47 1  
    50    6   48 1  
    51    7   49 1  
    52    7   50 1  
    53   11   51 1  
    54   12   52 1  
    55   12   53 1  
    56   13   54 1  
    57   14   55 1  
    58   14   56 1  
    59   14   57 1  
    60   15   58 1  
    61   15   59 1  
    62   15   60 1  
    63   20   61 1  
    64   21   62 1  
    65   22   63 1  
    66   23   64 1  
    67   24   65 1  
    68   25   66 1  
    69   26   67 1  
    70   28   68 1  
    71   29   69 1  
    72   30   70 1  
    73   30   71 1  
    74   34   72 1  
    75   35   73 1  
    76   35   74 1  
    77   36   75 1  
    78   37   76 1  
    79   37   77 1  
    80   37   78 1  
    81   38   79 1  
    82   38   80 1  
    83   38   81 1  
    84   41   82 1  
    85   42   83 1  
    86   42   84 1  
    87   43   85 1  
@<TRIPOS>SUBSTRUCTURE
     1 IN6         1

