### 
### Created by X-TOOL on Mon Sep 10 21:12:46 2018
### 

@<TRIPOS>MOLECULE
1b05_ligand
   58    57     1     0     0
SMALL
GAST_HUCK


@<TRIPOS>ATOM
      1 N           6.8840   16.6990   15.2850 N.4       1 LYS         0.2379
      2 CA          6.4780   18.0080   14.6520 C.3       1 LYS         0.0650
      3 C           5.2150   18.5430   15.3210 C.2       1 LYS         0.2267
      4 O           4.4280   17.7430   15.8270 O.2       1 LYS        -0.3907
      5 CB          6.2090   17.8530   13.1460 C.3       1 LYS         0.0080
      6 CG          5.1900   16.7820   12.7410 C.3       1 LYS        -0.0410
      7 CD          5.0660   16.6830   11.1980 C.3       1 LYS        -0.0123
      8 CE          6.4390   16.2680   10.5920 C.3       1 LYS        -0.0354
      9 NZ          6.5980   14.8130   10.9630 N.4       1 LYS         0.2185
     10 N           5.0800   19.8290   15.4610 N.am      1 CYS        -0.2602
     11 CA          3.9580   20.4790   16.1210 C.3       1 CYS         0.1397
     12 C           2.6430   20.3630   15.3690 C.2       1 CYS         0.2042
     13 O           2.5790   20.7100   14.1850 O.2       1 CYS        -0.3944
     14 CB          4.2210   21.9740   16.3740 C.3       1 CYS         0.0311
     15 SG          5.6110   22.1720   17.6070 S.3       1 CYS        -0.1735
     16 N           1.5780   20.0200   16.1000 N.am      1 LYS        -0.2695
     17 CA          0.2730   19.9130   15.4830 C.3       1 LYS         0.0944
     18 C          -0.7590   20.7790   16.2460 C.2       1 LYS         0.0601
     19 O          -1.7750   21.1190   15.6230 O.co2     1 LYS        -0.5666
     20 CB         -0.3500   18.5300   15.3100 C.3       1 LYS        -0.0177
     21 CG         -1.3710   18.6380   14.1520 C.3       1 LYS        -0.0446
     22 CD         -1.9940   17.3240   13.7850 C.3       1 LYS        -0.0125
     23 CE         -2.7310   17.3200   12.4390 C.3       1 LYS        -0.0354
     24 NZ         -3.7120   18.4370   12.3970 N.4       1 LYS         0.2185
     25 OE         -0.5180   21.2430   17.3380 O.co2     1 LYS        -0.5666
     26 H1          7.7183   16.3537   14.8370 H         1 LYS         0.2015
     27 H2          6.1406   16.0273   15.1742 H         1 LYS         0.2015
     28 H3          7.0642   16.8419   16.2664 H         1 LYS         0.2015
     29 H4          7.2943   18.7317   14.7930 H         1 LYS         0.1098
     30 H5          7.1642   17.6067   12.6593 H         1 LYS         0.0346
     31 H6          5.8446   18.8204   12.7701 H         1 LYS         0.0346
     32 H7          4.2085   17.0419   13.1641 H         1 LYS         0.0270
     33 H8          5.5146   15.8090   13.1383 H         1 LYS         0.0270
     34 H9          4.7659   17.6598   10.7909 H         1 LYS         0.0317
     35 H10         4.3080   15.9292   10.9387 H         1 LYS         0.0317
     36 H11         7.2518   16.8696   11.0249 H         1 LYS         0.0813
     37 H12         6.4337   16.3912    9.4989 H         1 LYS         0.0813
     38 H13         7.4735   14.4679   10.6018 H         1 LYS         0.1994
     39 H14         5.8385   14.2806   10.5683 H         1 LYS         0.1994
     40 H15         6.5882   14.7191   11.9666 H         1 LYS         0.1994
     41 H16         5.8001   20.4139   15.0877 H         1 CYS         0.1885
     42 H17         3.8312   19.9843   17.0953 H         1 CYS         0.0808
     43 H18         3.3094   22.4428   16.7730 H         1 CYS         0.0422
     44 H19         4.4999   22.4610   15.4280 H         1 CYS         0.0422
     45 H20         5.7783   23.1529   17.7683 H         1 CYS         0.1019
     46 H21         1.6832   19.8365   17.0774 H         1 LYS         0.1875
     47 H22         0.3872   20.3301   14.4716 H         1 LYS         0.0726
     48 H23        -0.8596   18.2262   16.2363 H         1 LYS         0.0305
     49 H24         0.4279   17.7933   15.0608 H         1 LYS         0.0305
     50 H25        -0.8543   19.0384   13.2673 H         1 LYS         0.0269
     51 H26        -2.1701   19.3306   14.4547 H         1 LYS         0.0269
     52 H27        -2.7144   17.0543   14.5713 H         1 LYS         0.0317
     53 H28        -1.1974   16.5667   13.7421 H         1 LYS         0.0317
     54 H29        -3.2611   16.3640   12.3160 H         1 LYS         0.0813
     55 H30        -2.0028   17.4431   11.6238 H         1 LYS         0.0813
     56 H31        -4.1925   18.4290   11.5109 H         1 LYS         0.1994
     57 H32        -3.2277   19.3139   12.5086 H         1 LYS         0.1994
     58 H33        -4.3807   18.3251   13.1429 H         1 LYS         0.1994
@<TRIPOS>BOND
     1    3    2 1  
     2    2    5 1  
     3    2    1 1  
     4    5    6 1  
     5    6    7 1  
     6    7    8 1  
     7    8    9 1  
     8    3    4 2  
     9   12   11 1  
    10   11   14 1  
    11   11   10 1  
    12   14   15 1  
    13   12   13 2  
    14   17   18 1  
    15   17   20 1  
    16   16   17 1  
    17   20   21 1  
    18   21   22 1  
    19   22   23 1  
    20   23   24 1  
    21   18   25 ar 
    22   18   19 ar 
    23   10    3 am 
    24   12   16 am 
    25    1   26 1  
    26    1   27 1  
    27    1   28 1  
    28    2   29 1  
    29    5   30 1  
    30    5   31 1  
    31    6   32 1  
    32    6   33 1  
    33    7   34 1  
    34    7   35 1  
    35    8   36 1  
    36    8   37 1  
    37    9   38 1  
    38    9   39 1  
    39    9   40 1  
    40   10   41 1  
    41   11   42 1  
    42   14   43 1  
    43   14   44 1  
    44   15   45 1  
    45   16   46 1  
    46   17   47 1  
    47   20   48 1  
    48   20   49 1  
    49   21   50 1  
    50   21   51 1  
    51   22   52 1  
    52   22   53 1  
    53   23   54 1  
    54   23   55 1  
    55   24   56 1  
    56   24   57 1  
    57   24   58 1  
@<TRIPOS>SUBSTRUCTURE
     1 LYS         1

