### 
### Created by X-TOOL on Mon Sep 10 21:12:46 2018
### 

@<TRIPOS>MOLECULE
1b0f_ligand
   83    85     1     0     0
SMALL
GAST_HUCK


@<TRIPOS>ATOM
      1 C2         71.2490   42.2540   56.8290 C.3       1 SEI         0.0680
      2 C3         72.2980   43.1250   56.1970 C.3       1 SEI         0.0569
      3 C15        72.8480   45.4530   56.1250 C.2       1 SEI         0.2102
      4 C19        71.6850   49.6000   56.5790 C.ar      1 SEI         0.0539
      5 C20        71.1360   48.6270   57.4150 C.ar      1 SEI        -0.0368
      6 C21        71.5470   47.3020   57.2760 C.ar      1 SEI        -0.0368
      7 C22        72.4860   46.8950   56.3030 C.ar      1 SEI         0.0540
      8 C27        71.3080   51.0040   56.8410 C.2       1 SEI         0.2099
      9 C30        72.3500   53.8400   55.3100 C.3       1 SEI        -0.0063
     10 C31        73.6340   53.4690   56.0020 C.3       1 SEI        -0.0584
     11 C35        72.2240   55.3700   55.2560 C.3       1 SEI        -0.0584
     12 O1         70.0630   42.6410   56.1860 O.3       1 SEI        -0.3758
     13 N4         71.8870   44.5210   56.2210 N.am      1 SEI        -0.2675
     14 C5         70.4780   44.8080   55.9770 C.3       1 SEI         0.0569
     15 C6         69.6200   43.8420   56.7290 C.3       1 SEI         0.0680
     16 O16        73.9750   45.0510   55.8550 O.2       1 SEI        -0.3828
     17 C17        73.0420   47.8850   55.4740 C.ar      1 SEI        -0.0368
     18 C18        72.5970   49.2150   55.5640 C.ar      1 SEI        -0.0368
     19 N28        71.0500   51.7780   55.7480 N.am      1 SEI        -0.2641
     20 C29        71.1510   53.1980   56.0630 C.3       1 SEI         0.1330
     21 C40        69.8270   53.8190   55.6360 C.2       1 SEI         0.2066
     22 O42        69.4560   53.7500   54.4700 O.2       1 SEI        -0.3942
     23 C44        67.7610   54.8240   56.2350 C.3       1 SEI         0.1336
     24 C45        69.4120   54.4820   58.0150 C.3       1 SEI         0.0369
     25 C46        68.1260   54.9730   58.6700 C.3       1 SEI        -0.0281
     26 C47        67.1620   55.2320   57.5670 C.3       1 SEI        -0.0104
     27 C52        67.8700   56.0120   55.2990 C.2       1 SEI         0.2022
     28 N53        66.8730   56.0130   54.4100 N.am      1 SEI        -0.2791
     29 N54        69.0810   54.3570   56.5950 N.am      1 SEI        -0.2498
     30 O58        68.7790   56.8260   55.4180 O.2       1 SEI        -0.3945
     31 C59        66.7250   57.0680   53.4370 C.3       1 SEI         0.0762
     32 C61        66.7560   56.4790   51.9920 C.3       1 SEI        -0.0210
     33 C62        65.6970   55.4270   51.8040 C.3       1 SEI        -0.0605
     34 C66        68.1280   55.8970   51.6880 C.3       1 SEI        -0.0605
     35 C71        65.5360   58.0200   53.5610 C.3       1 SEI         0.1501
     36 C73        65.3910   58.7340   55.0350 C.3       1 SEI         0.3687
     37 O74        64.9960   58.4300   52.5410 O.3       1 SEI        -0.3832
     38 F75        64.1220   59.1010   55.6040 F         1 SEI        -0.1929
     39 F76        66.1200   57.9630   55.9050 F         1 SEI        -0.1929
     40 C77        66.0170   60.0440   54.9430 C.3       1 SEI         0.4566
     41 F78        67.2730   59.8040   54.6830 F         1 SEI        -0.1649
     42 F79        65.4350   60.7200   53.9670 F         1 SEI        -0.1649
     43 F80        65.8030   60.6120   56.1060 F         1 SEI        -0.1649
     44 O81        71.2520   51.4570   57.9890 O.2       1 SEI        -0.3829
     45 H1         71.1863   42.4384   57.9116 H         1 SEI         0.0580
     46 H2         71.4628   41.1899   56.6501 H         1 SEI         0.0580
     47 H3         72.4487   42.8104   55.1538 H         1 SEI         0.0545
     48 H4         73.2411   43.0162   56.7527 H         1 SEI         0.0545
     49 H5         70.3995   48.8978   58.1629 H         1 SEI         0.0679
     50 H6         71.1293   46.5548   57.9410 H         1 SEI         0.0679
     51 H7         72.3697   53.4508   54.2814 H         1 SEI         0.0343
     52 H8         74.4823   53.9234   55.4691 H         1 SEI         0.0234
     53 H9         73.7463   52.3748   56.0046 H         1 SEI         0.0234
     54 H10        73.6120   53.8378   57.0381 H         1 SEI         0.0234
     55 H11        71.2860   55.6430   54.7505 H         1 SEI         0.0234
     56 H12        73.0756   55.7887   54.6997 H         1 SEI         0.0234
     57 H13        72.2201   55.7740   56.2791 H         1 SEI         0.0234
     58 H14        70.2694   44.7186   54.9007 H         1 SEI         0.0545
     59 H15        70.2520   45.8316   56.3105 H         1 SEI         0.0545
     60 H16        69.8047   43.8915   57.8122 H         1 SEI         0.0580
     61 H17        68.5508   44.0081   56.5313 H         1 SEI         0.0580
     62 H18        73.8166   47.6216   54.7629 H         1 SEI         0.0679
     63 H19        72.9534   49.9513   54.8527 H         1 SEI         0.0679
     64 H20        70.8204   51.4169   54.8442 H         1 SEI         0.1877
     65 H21        71.2949   53.3342   57.1450 H         1 SEI         0.0802
     66 H22        67.1690   54.0277   55.7603 H         1 SEI         0.0802
     67 H23        69.7120   53.5087   58.4305 H         1 SEI         0.0524
     68 H24        70.2242   55.2093   58.1614 H         1 SEI         0.0524
     69 H25        68.3159   55.8983   59.2336 H         1 SEI         0.0287
     70 H26        67.7284   54.2048   59.3495 H         1 SEI         0.0287
     71 H27        66.2440   54.6525   57.7444 H         1 SEI         0.0313
     72 H28        66.9194   56.3046   57.5421 H         1 SEI         0.0313
     73 H29        66.2118   55.2628   54.4191 H         1 SEI         0.1856
     74 H30        67.6199   57.6972   53.5521 H         1 SEI         0.0586
     75 H31        66.5592   57.2968   51.2832 H         1 SEI         0.0318
     76 H32        65.7478   55.0350   50.7775 H         1 SEI         0.0233
     77 H33        64.7053   55.8697   51.9787 H         1 SEI         0.0233
     78 H34        65.8637   54.6072   52.5182 H         1 SEI         0.0233
     79 H35        68.8948   56.6732   51.8282 H         1 SEI         0.0233
     80 H36        68.1529   55.5407   50.6476 H         1 SEI         0.0233
     81 H37        68.3287   55.0563   52.3684 H         1 SEI         0.0233
     82 H38        64.7795   57.2442   53.7502 H         1 SEI         0.0680
     83 H39        64.0537   58.4331   52.6622 H         1 SEI         0.2101
@<TRIPOS>BOND
     1    2    1 1  
     2    1   12 1  
     3   13    2 1  
     4    7    3 1  
     5    3   13 am 
     6    3   16 2  
     7    4    5 ar 
     8    8    4 1  
     9    4   18 ar 
    10    5    6 ar 
    11    6    7 ar 
    12   17    7 ar 
    13   19    8 am 
    14    8   44 2  
    15    9   10 1  
    16    9   11 1  
    17   20    9 1  
    18   15   12 1  
    19   13   14 1  
    20   14   15 1  
    21   18   17 ar 
    22   20   19 1  
    23   21   20 1  
    24   21   22 2  
    25   29   21 am 
    26   23   26 1  
    27   23   27 1  
    28   29   23 1  
    29   24   25 1  
    30   24   29 1  
    31   25   26 1  
    32   27   28 am 
    33   27   30 2  
    34   28   31 1  
    35   31   32 1  
    36   31   35 1  
    37   32   33 1  
    38   32   34 1  
    39   35   36 1  
    40   35   37 1  
    41   36   38 1  
    42   36   39 1  
    43   36   40 1  
    44   40   41 1  
    45   40   42 1  
    46   40   43 1  
    47    1   45 1  
    48    1   46 1  
    49    2   47 1  
    50    2   48 1  
    51    5   49 1  
    52    6   50 1  
    53    9   51 1  
    54   10   52 1  
    55   10   53 1  
    56   10   54 1  
    57   11   55 1  
    58   11   56 1  
    59   11   57 1  
    60   14   58 1  
    61   14   59 1  
    62   15   60 1  
    63   15   61 1  
    64   17   62 1  
    65   18   63 1  
    66   19   64 1  
    67   20   65 1  
    68   23   66 1  
    69   24   67 1  
    70   24   68 1  
    71   25   69 1  
    72   25   70 1  
    73   26   71 1  
    74   26   72 1  
    75   28   73 1  
    76   31   74 1  
    77   32   75 1  
    78   33   76 1  
    79   33   77 1  
    80   33   78 1  
    81   34   79 1  
    82   34   80 1  
    83   34   81 1  
    84   35   82 1  
    85   37   83 1  
@<TRIPOS>SUBSTRUCTURE
     1 SEI         1

