### 
### Created by X-TOOL on Mon Sep 10 21:12:46 2018
### 

@<TRIPOS>MOLECULE
1b0h_ligand
   73    74     1     0     0
SMALL
GAST_HUCK


@<TRIPOS>ATOM
      1 N           6.9090   16.7300   15.2530 N.4       1 LYS         0.2379
      2 CA          6.4360   18.0200   14.6830 C.3       1 LYS         0.0650
      3 C           5.1700   18.4740   15.4120 C.2       1 LYS         0.2268
      4 O           4.4670   17.5800   15.8650 O.2       1 LYS        -0.3907
      5 CB          6.2720   17.9240   13.1610 C.3       1 LYS         0.0080
      6 CG          5.3730   16.7960   12.6860 C.3       1 LYS        -0.0410
      7 CD          5.3290   16.6920   11.1580 C.3       1 LYS        -0.0123
      8 CE          6.6160   16.0710   10.5960 C.3       1 LYS        -0.0354
      9 NZ          6.6840   14.6270   10.9920 N.4       1 LYS         0.2185
     10 N           4.9980   19.7850   15.6180 N.am      1 ALN        -0.2591
     11 CA          3.7820   20.2150   16.3270 C.3       1 ALN         0.1412
     12 C           2.5590   20.1490   15.4140 C.2       1 ALN         0.2056
     13 O           2.5900   20.4070   14.2000 O.2       1 ALN        -0.3942
     14 CB          3.9240   21.6660   16.8420 C.3       1 ALN         0.0237
     15 CG1         5.0970   21.7900   17.8040 C.ar      1 ALN        -0.0279
     16 CD1         6.1730   22.5540   17.3290 C.ar      1 ALN        -0.0605
     17 CE1         7.3110   22.7060   18.1170 C.ar      1 ALN        -0.0707
     18 CD2         5.1750   21.2140   19.0800 C.ar      1 ALN        -0.0119
     19 CE2         6.2950   21.3250   19.9340 C.ar      1 ALN        -0.0243
     20 CZ1         7.3670   22.1270   19.3670 C.ar      1 ALN        -0.0631
     21 CG2         4.1150   20.4510   19.5690 C.ar      1 ALN        -0.0548
     22 CD3         4.0960   19.8320   20.7520 C.ar      1 ALN        -0.0625
     23 CE3         5.2370   19.9180   21.5770 C.ar      1 ALN        -0.0629
     24 CZ2         6.3230   20.6880   21.1870 C.ar      1 ALN        -0.0569
     25 N           1.4090   19.7920   15.9990 N.am      1 LYS        -0.2693
     26 CA          0.1730   19.7670   15.2560 C.3       1 LYS         0.0944
     27 C          -0.8960   20.5730   16.0140 C.2       1 LYS         0.0601
     28 O          -1.8600   20.9460   15.3390 O.co2     1 LYS        -0.5666
     29 CB         -0.4140   18.3430   15.1810 C.3       1 LYS        -0.0177
     30 CG         -1.3790   18.2590   13.9930 C.3       1 LYS        -0.0446
     31 CD         -2.0790   16.9220   14.0350 C.3       1 LYS        -0.0125
     32 CE         -3.4240   17.0270   13.3120 C.3       1 LYS        -0.0354
     33 NZ         -3.1520   16.8360   11.8600 N.4       1 LYS         0.2185
     34 OXT        -0.8180   20.7360   17.2390 O.co2     1 LYS        -0.5666
     35 H1          7.7430   16.4349   14.7698 H         1 LYS         0.2015
     36 H2          6.1915   16.0307   15.1426 H         1 LYS         0.2015
     37 H3          7.1131   16.8503   16.2327 H         1 LYS         0.2015
     38 H4          7.2114   18.7761   14.8752 H         1 LYS         0.1098
     39 H5          7.2682   17.7768   12.7183 H         1 LYS         0.0346
     40 H6          5.8479   18.8734   12.8022 H         1 LYS         0.0346
     41 H7          4.3535   16.9756   13.0578 H         1 LYS         0.0270
     42 H8          5.7504   15.8469   13.0944 H         1 LYS         0.0270
     43 H9          5.2049   17.6998   10.7351 H         1 LYS         0.0317
     44 H10         4.4736   16.0645   10.8675 H         1 LYS         0.0317
     45 H11         7.4886   16.6044   11.0011 H         1 LYS         0.0813
     46 H12         6.6140   16.1513    9.4989 H         1 LYS         0.0813
     47 H13         7.5282   14.2171   10.6241 H         1 LYS         0.1994
     48 H14         5.8841   14.1387   10.6208 H         1 LYS         0.1994
     49 H15         6.6855   14.5540   11.9973 H         1 LYS         0.1994
     50 H16         5.6734   20.4506   15.3007 H         1 ALN         0.1886
     51 H17         3.6244   19.5446   17.1847 H         1 ALN         0.0825
     52 H18         2.9993   21.9552   17.3629 H         1 ALN         0.0486
     53 H19         4.0880   22.3373   15.9861 H         1 ALN         0.0486
     54 H20         6.1190   23.0237   16.3535 H         1 ALN         0.0530
     55 H21         8.1532   23.2798   17.7475 H         1 ALN         0.0595
     56 H22         8.2612   22.2783   19.9608 H         1 ALN         0.0542
     57 H23         3.2380   20.3528   18.9395 H         1 ALN         0.0628
     58 H24         3.2225   19.2753   21.0716 H         1 ALN         0.0601
     59 H25         5.2653   19.3810   22.5182 H         1 ALN         0.0616
     60 H26         7.1817   20.7971   21.8396 H         1 ALN         0.0609
     61 H27         1.4069   19.5387   16.9664 H         1 LYS         0.1875
     62 H28         0.3379   20.1745   14.2477 H         1 LYS         0.0726
     63 H29        -0.9556   18.1185   16.1117 H         1 LYS         0.0305
     64 H30         0.4002   17.6158   15.0460 H         1 LYS         0.0305
     65 H31        -0.8175   18.3539   13.0519 H         1 LYS         0.0269
     66 H32        -2.1211   19.0681   14.0604 H         1 LYS         0.0269
     67 H33        -2.2474   16.6291   15.0818 H         1 LYS         0.0317
     68 H34        -1.4540   16.1652   13.5384 H         1 LYS         0.0317
     69 H35        -3.8705   18.0171   13.4859 H         1 LYS         0.0813
     70 H36        -4.1098   16.2468   13.6740 H         1 LYS         0.0813
     71 H37        -4.0164   16.8982   11.3452 H         1 LYS         0.1994
     72 H38        -2.7374   15.9292   11.7122 H         1 LYS         0.1994
     73 H39        -2.5182   17.5514   11.5399 H         1 LYS         0.1994
@<TRIPOS>BOND
     1    2    1 1  
     2    2    5 1  
     3    3    2 1  
     4    3    4 2  
     5    5    6 1  
     6    6    7 1  
     7    7    8 1  
     8    8    9 1  
     9   25   26 1  
    10   26   29 1  
    11   26   27 1  
    12   27   28 ar 
    13   27   34 ar 
    14   29   30 1  
    15   30   31 1  
    16   31   32 1  
    17   32   33 1  
    18   11   10 1  
    19   12   11 1  
    20   11   14 1  
    21   12   13 2  
    22   14   15 1  
    23   15   16 ar 
    24   15   18 ar 
    25   16   17 ar 
    26   17   20 ar 
    27   18   19 ar 
    28   18   21 ar 
    29   19   20 ar 
    30   19   24 ar 
    31   21   22 ar 
    32   22   23 ar 
    33   24   23 ar 
    34   10    3 am 
    35   12   25 am 
    36    1   35 1  
    37    1   36 1  
    38    1   37 1  
    39    2   38 1  
    40    5   39 1  
    41    5   40 1  
    42    6   41 1  
    43    6   42 1  
    44    7   43 1  
    45    7   44 1  
    46    8   45 1  
    47    8   46 1  
    48    9   47 1  
    49    9   48 1  
    50    9   49 1  
    51   10   50 1  
    52   11   51 1  
    53   14   52 1  
    54   14   53 1  
    55   16   54 1  
    56   17   55 1  
    57   20   56 1  
    58   21   57 1  
    59   22   58 1  
    60   23   59 1  
    61   24   60 1  
    62   25   61 1  
    63   26   62 1  
    64   29   63 1  
    65   29   64 1  
    66   30   65 1  
    67   30   66 1  
    68   31   67 1  
    69   31   68 1  
    70   32   69 1  
    71   32   70 1  
    72   33   71 1  
    73   33   72 1  
    74   33   73 1  
@<TRIPOS>SUBSTRUCTURE
     1 LYS         1

