### 
### Created by X-TOOL on Mon Sep 10 21:12:47 2018
### 

@<TRIPOS>MOLECULE
1b2i_ligand
   26    26     1     0     0
SMALL
GAST_HUCK


@<TRIPOS>ATOM
      1 C1          5.6330   -0.3560   -9.0440 C.3       1 AMH         0.0118
      2 C2          5.0730    0.7890   -9.8920 C.3       1 AMH        -0.0382
      3 C3          3.9840    0.2530  -10.8180 C.3       1 AMH        -0.0436
      4 C4          2.7720   -0.3120  -10.0490 C.3       1 AMH        -0.0007
      5 C5          3.2750   -1.3200   -9.0140 C.3       1 AMH        -0.0436
      6 C6          4.4740   -0.8420   -8.1730 C.3       1 AMH        -0.0382
      7 C7          1.7660   -0.9960  -11.0170 C.3       1 AMH        -0.0325
      8 C8          6.8660    0.0820   -8.2090 C.2       1 AMH         0.0379
      9 N           2.4750   -1.7890  -12.0240 N.4       1 AMH         0.2187
     10 O1          7.4630    1.1180   -8.4980 O.co2     1 AMH        -0.5687
     11 O2          7.2650   -0.6270   -7.2870 O.co2     1 AMH        -0.5687
     12 H1          5.9498   -1.1740   -9.7077 H         1 AMH         0.0466
     13 H2          5.8819    1.2288  -10.4939 H         1 AMH         0.0286
     14 H3          4.6466    1.5590   -9.2323 H         1 AMH         0.0286
     15 H4          4.4123   -0.5488  -11.4374 H         1 AMH         0.0271
     16 H5          3.6386    1.0721  -11.4658 H         1 AMH         0.0271
     17 H6          2.2595    0.5125   -9.5318 H         1 AMH         0.0352
     18 H7          3.5738   -2.2355   -9.5456 H         1 AMH         0.0271
     19 H8          2.4459   -1.5483   -8.3281 H         1 AMH         0.0271
     20 H9          4.1458   -0.0150   -7.5262 H         1 AMH         0.0286
     21 H10         4.8252   -1.6777   -7.5499 H         1 AMH         0.0286
     22 H11         1.1677   -0.2230  -11.5216 H         1 AMH         0.0816
     23 H12         1.1013   -1.6558  -10.4401 H         1 AMH         0.0816
     24 H13         1.8067   -2.2237  -12.6409 H         1 AMH         0.1994
     25 H14         3.0226   -2.5010  -11.5666 H         1 AMH         0.1994
     26 H15         3.0835   -1.1881  -12.5576 H         1 AMH         0.1994
@<TRIPOS>BOND
     1    1    2 1  
     2    1    6 1  
     3    1    8 1  
     4    2    3 1  
     5    3    4 1  
     6    4    5 1  
     7    4    7 1  
     8    5    6 1  
     9    7    9 1  
    10    8   10 ar 
    11    8   11 ar 
    12    1   12 1  
    13    2   13 1  
    14    2   14 1  
    15    3   15 1  
    16    3   16 1  
    17    4   17 1  
    18    5   18 1  
    19    5   19 1  
    20    6   20 1  
    21    6   21 1  
    22    7   22 1  
    23    7   23 1  
    24    9   24 1  
    25    9   25 1  
    26    9   26 1  
@<TRIPOS>SUBSTRUCTURE
     1 AMH         1

