### 
### Created by X-TOOL on Mon Sep 10 21:12:46 2018
### 

@<TRIPOS>MOLECULE
1b32_ligand
   64    63     1     0     0
SMALL
GAST_HUCK


@<TRIPOS>ATOM
      1 N           6.9470   16.5650   15.2090 N.4       1 LYS         0.2379
      2 CA          6.4310   17.8370   14.5950 C.3       1 LYS         0.0650
      3 C           5.2030   18.3330   15.3390 C.2       1 LYS         0.2267
      4 O           4.4630   17.5300   15.9270 O.2       1 LYS        -0.3907
      5 CB          6.2090   17.7120   13.0770 C.3       1 LYS         0.0080
      6 CG          5.2150   16.6570   12.6240 C.3       1 LYS        -0.0410
      7 CD          5.1970   16.5260   11.0860 C.3       1 LYS        -0.0123
      8 CE          6.4140   15.8330   10.4910 C.3       1 LYS        -0.0354
      9 NZ          6.6320   14.4330   10.9630 N.4       1 LYS         0.2185
     10 N           5.0540   19.6500   15.3890 N.am      1 MET        -0.2610
     11 CA          3.9230   20.2920   16.0830 C.3       1 MET         0.1318
     12 C           2.6280   20.1380   15.3150 C.2       1 MET         0.2034
     13 O           2.5970   20.3970   14.1110 O.2       1 MET        -0.3944
     14 CB          4.2400   21.8120   16.1170 C.3       1 MET        -0.0034
     15 CG          5.4510   22.0780   17.0350 C.3       1 MET        -0.0024
     16 SD          5.0080   21.7180   18.7500 S.3       1 MET        -0.1639
     17 CE          5.5970   23.1860   19.5800 C.3       1 MET        -0.0181
     18 N           1.5540   19.7940   16.0470 N.am      1 LYS        -0.2695
     19 CA          0.2440   19.7000   15.4120 C.3       1 LYS         0.0944
     20 C          -0.7890   20.5490   16.1700 C.2       1 LYS         0.0601
     21 O          -1.7780   20.9220   15.4780 O.co2     1 LYS        -0.5666
     22 CB         -0.3060   18.2710   15.3280 C.3       1 LYS        -0.0177
     23 CG         -1.3580   18.3550   14.1870 C.3       1 LYS        -0.0446
     24 CD         -2.1190   17.0690   14.0400 C.3       1 LYS        -0.0125
     25 CE         -3.3410   17.2780   13.1450 C.3       1 LYS        -0.0354
     26 NZ         -2.8640   16.9820   11.7550 N.4       1 LYS         0.2185
     27 OXT        -0.5490   20.9310   17.3190 O.co2     1 LYS        -0.5666
     28 H1          7.7603   16.2530   14.7019 H         1 LYS         0.2015
     29 H2          6.2315   15.8564   15.1652 H         1 LYS         0.2015
     30 H3          7.1952   16.7330   16.1714 H         1 LYS         0.2015
     31 H4          7.2135   18.5978   14.7325 H         1 LYS         0.1098
     32 H5          7.1794   17.4775   12.6151 H         1 LYS         0.0346
     33 H6          5.8538   18.6860   12.7095 H         1 LYS         0.0346
     34 H7          4.2101   16.9391   12.9712 H         1 LYS         0.0270
     35 H8          5.4960   15.6882   13.0627 H         1 LYS         0.0270
     36 H9          5.1350   17.5370   10.6570 H         1 LYS         0.0317
     37 H10         4.3030   15.9516   10.8018 H         1 LYS         0.0317
     38 H11         7.3048   16.4239   10.7503 H         1 LYS         0.0813
     39 H12         6.2943   15.8105    9.3978 H         1 LYS         0.0813
     40 H13         7.4544   14.0535   10.5206 H         1 LYS         0.1994
     41 H14         5.8314   13.8692   10.7237 H         1 LYS         0.1994
     42 H15         6.7574   14.4313   11.9632 H         1 LYS         0.1994
     43 H16         5.7341   20.2289   14.9392 H         1 MET         0.1884
     44 H17         3.8150   19.8815   17.0978 H         1 MET         0.0800
     45 H18         3.3654   22.3580   16.5004 H         1 MET         0.0320
     46 H19         4.4715   22.1587   15.0991 H         1 MET         0.0320
     47 H20         5.7503   23.1330   16.9487 H         1 MET         0.0378
     48 H21         6.2887   21.4332   16.7309 H         1 MET         0.0378
     49 H22         5.3902   23.1059   20.6574 H         1 MET         0.0340
     50 H23         5.0827   24.0689   19.1726 H         1 MET         0.0340
     51 H24         6.6808   23.2871   19.4212 H         1 MET         0.0340
     52 H25         1.6529   19.6032   17.0236 H         1 LYS         0.1875
     53 H26         0.3426   20.0906   14.3884 H         1 LYS         0.0726
     54 H27        -0.7774   17.9745   16.2766 H         1 LYS         0.0305
     55 H28         0.4916   17.5567   15.0758 H         1 LYS         0.0305
     56 H29        -0.8415   18.5741   13.2408 H         1 LYS         0.0269
     57 H30        -2.0667   19.1650   14.4140 H         1 LYS         0.0269
     58 H31        -2.4494   16.7268   15.0318 H         1 LYS         0.0317
     59 H32        -1.4642   16.3088   13.5891 H         1 LYS         0.0317
     60 H33        -3.6994   18.3155   13.2172 H         1 LYS         0.0813
     61 H34        -4.1504   16.5897   13.4300 H         1 LYS         0.0813
     62 H35        -3.6259   17.1011   11.1059 H         1 LYS         0.1994
     63 H36        -2.5293   16.0323   11.7097 H         1 LYS         0.1994
     64 H37        -2.1161   17.6136   11.5147 H         1 LYS         0.1994
@<TRIPOS>BOND
     1    3    2 1  
     2    2    5 1  
     3    2    1 1  
     4    5    6 1  
     5    6    7 1  
     6    7    8 1  
     7    8    9 1  
     8    3    4 2  
     9   12   11 1  
    10   11   14 1  
    11   11   10 1  
    12   14   15 1  
    13   15   16 1  
    14   16   17 1  
    15   12   13 2  
    16   19   20 1  
    17   19   22 1  
    18   18   19 1  
    19   22   23 1  
    20   23   24 1  
    21   24   25 1  
    22   25   26 1  
    23   20   27 ar 
    24   20   21 ar 
    25   10    3 am 
    26   12   18 am 
    27    1   28 1  
    28    1   29 1  
    29    1   30 1  
    30    2   31 1  
    31    5   32 1  
    32    5   33 1  
    33    6   34 1  
    34    6   35 1  
    35    7   36 1  
    36    7   37 1  
    37    8   38 1  
    38    8   39 1  
    39    9   40 1  
    40    9   41 1  
    41    9   42 1  
    42   10   43 1  
    43   11   44 1  
    44   14   45 1  
    45   14   46 1  
    46   15   47 1  
    47   15   48 1  
    48   17   49 1  
    49   17   50 1  
    50   17   51 1  
    51   18   52 1  
    52   19   53 1  
    53   22   54 1  
    54   22   55 1  
    55   23   56 1  
    56   23   57 1  
    57   24   58 1  
    58   24   59 1  
    59   25   60 1  
    60   25   61 1  
    61   26   62 1  
    62   26   63 1  
    63   26   64 1  
@<TRIPOS>SUBSTRUCTURE
     1 LYS         1

