### 
### Created by X-TOOL on Mon Sep 10 21:12:46 2018
### 

@<TRIPOS>MOLECULE
1b3f_ligand
   64    64     1     0     0
SMALL
GAST_HUCK


@<TRIPOS>ATOM
      1 N           6.9140   16.6450   15.2960 N.4       1 LYS         0.2379
      2 CA          6.4130   17.9440   14.7500 C.3       1 LYS         0.0650
      3 C           5.1480   18.4300   15.4470 C.2       1 LYS         0.2268
      4 O           4.3320   17.5910   15.8510 O.2       1 LYS        -0.3907
      5 CB          6.2200   17.9060   13.2230 C.3       1 LYS         0.0080
      6 CG          5.2860   16.7890   12.7530 C.3       1 LYS        -0.0410
      7 CD          5.2800   16.7040   11.2170 C.3       1 LYS        -0.0123
      8 CE          6.5930   16.0980   10.6610 C.3       1 LYS        -0.0354
      9 NZ          6.6160   14.6150   10.9480 N.4       1 LYS         0.2185
     10 N           5.0070   19.7440   15.6040 N.am      1 HIS        -0.2592
     11 CA          3.8060   20.2520   16.2970 C.3       1 HIS         0.1422
     12 C           2.5570   20.1930   15.4230 C.2       1 HIS         0.2054
     13 O           2.6300   20.5190   14.2370 O.2       1 HIS        -0.3942
     14 CB          3.9920   21.7460   16.6740 C.3       1 HIS         0.0427
     15 CG          4.9770   21.8690   17.8130 C.2       1 HIS         0.0561
     16 ND1         4.8140   21.3600   19.0710 N.pl3     1 HIS        -0.2623
     17 CD2         6.1940   22.4580   17.7740 C.2       1 HIS        -0.0276
     18 CE1         5.8910   21.6470   19.7900 C.2       1 HIS         0.0875
     19 NE2         6.7560   22.3220   19.0340 N.2       1 HIS        -0.3437
     20 N           1.4200   19.8270   16.0570 N.am      1 LYS        -0.2693
     21 CA          0.1640   19.8440   15.3010 C.3       1 LYS         0.0944
     22 C          -0.8520   20.7630   16.0080 C.2       1 LYS         0.0601
     23 O          -1.8330   21.1520   15.3540 O.co2     1 LYS        -0.5666
     24 CB         -0.4780   18.4580   15.1660 C.3       1 LYS        -0.0177
     25 CG         -1.5920   18.4640   14.1110 C.3       1 LYS        -0.0446
     26 CD         -2.4430   17.2120   14.2930 C.3       1 LYS        -0.0125
     27 CE         -3.6670   17.2530   13.4280 C.3       1 LYS        -0.0354
     28 NZ         -3.3780   17.5310   11.9980 N.4       1 LYS         0.2185
     29 OXT        -0.6730   21.1220   17.1810 O.co2     1 LYS        -0.5666
     30 H1          7.7485   16.3719   14.8009 H         1 LYS         0.2015
     31 H2          6.2069   15.9362   15.1790 H         1 LYS         0.2015
     32 H3          7.1244   16.7512   16.2760 H         1 LYS         0.2015
     33 H4          7.1948   18.6904   14.9541 H         1 LYS         0.1098
     34 H5          7.2029   17.7593   12.7514 H         1 LYS         0.0346
     35 H6          5.7991   18.8700   12.9012 H         1 LYS         0.0346
     36 H7          4.2658   16.9964   13.1082 H         1 LYS         0.0270
     37 H8          5.6308   15.8302   13.1674 H         1 LYS         0.0270
     38 H9          5.1552   17.7168   10.8063 H         1 LYS         0.0317
     39 H10         4.4364   16.0733   10.9001 H         1 LYS         0.0317
     40 H11         7.4549   16.5799   11.1457 H         1 LYS         0.0813
     41 H12         6.6435   16.2633    9.5747 H         1 LYS         0.0813
     42 H13         7.4689   14.2163   10.5879 H         1 LYS         0.1994
     43 H14         5.8255   14.1745   10.5040 H         1 LYS         0.1994
     44 H15         6.5690   14.4646   11.9436 H         1 LYS         0.1994
     45 H16         5.7014   20.3756   15.2591 H         1 HIS         0.1886
     46 H17         3.6459   19.6534   17.2058 H         1 HIS         0.0824
     47 H18         3.0239   22.1680   16.9816 H         1 HIS         0.0491
     48 H19         4.3721   22.2979   15.8017 H         1 HIS         0.0491
     49 H20         3.9906   20.8394   19.4055 H         1 HIS         0.2386
     50 H21         6.6476   22.9476   16.9135 H         1 HIS         0.0324
     51 H22         6.0441   21.3741   20.8331 H         1 HIS         0.1149
     52 H23         1.4355   19.5514   17.0182 H         1 LYS         0.1875
     53 H24         0.3721   20.2354   14.2943 H         1 LYS         0.0726
     54 H25        -0.9042   18.1637   16.1364 H         1 LYS         0.0305
     55 H26         0.2935   17.7323   14.8692 H         1 LYS         0.0305
     56 H27        -1.1487   18.4673   13.1043 H         1 LYS         0.0269
     57 H28        -2.2183   19.3592   14.2388 H         1 LYS         0.0269
     58 H29        -2.7513   17.1386   15.3463 H         1 LYS         0.0317
     59 H30        -1.8439   16.3296   14.0239 H         1 LYS         0.0317
     60 H31        -4.3340   18.0412   13.8071 H         1 LYS         0.0813
     61 H32        -4.1739   16.2792   13.4969 H         1 LYS         0.0813
     62 H33        -4.2410   17.5442   11.4772 H         1 LYS         0.1994
     63 H34        -2.7751   16.8114   11.6310 H         1 LYS         0.1994
     64 H35        -2.9219   18.4261   11.9152 H         1 LYS         0.1994
@<TRIPOS>BOND
     1    3    2 1  
     2    2    5 1  
     3    2    1 1  
     4    5    6 1  
     5    6    7 1  
     6    7    8 1  
     7    8    9 1  
     8    3    4 2  
     9   12   11 1  
    10   11   14 1  
    11   11   10 1  
    12   14   15 1  
    13   15   17 2  
    14   15   16 1  
    15   16   18 1  
    16   18   19 2  
    17   17   19 1  
    18   12   13 2  
    19   21   22 1  
    20   21   24 1  
    21   20   21 1  
    22   24   25 1  
    23   25   26 1  
    24   26   27 1  
    25   27   28 1  
    26   22   29 ar 
    27   22   23 ar 
    28   10    3 am 
    29   12   20 am 
    30    1   30 1  
    31    1   31 1  
    32    1   32 1  
    33    2   33 1  
    34    5   34 1  
    35    5   35 1  
    36    6   36 1  
    37    6   37 1  
    38    7   38 1  
    39    7   39 1  
    40    8   40 1  
    41    8   41 1  
    42    9   42 1  
    43    9   43 1  
    44    9   44 1  
    45   10   45 1  
    46   11   46 1  
    47   14   47 1  
    48   14   48 1  
    49   16   49 1  
    50   17   50 1  
    51   18   51 1  
    52   20   52 1  
    53   21   53 1  
    54   24   54 1  
    55   24   55 1  
    56   25   56 1  
    57   25   57 1  
    58   26   58 1  
    59   26   59 1  
    60   27   60 1  
    61   27   61 1  
    62   28   62 1  
    63   28   63 1  
    64   28   64 1  
@<TRIPOS>SUBSTRUCTURE
     1 LYS         1

