### 
### Created by X-TOOL on Mon Sep 10 21:12:46 2018
### 

@<TRIPOS>MOLECULE
1b3g_ligand
   66    65     1     0     0
SMALL
GAST_HUCK


@<TRIPOS>ATOM
      1 N           7.0190   16.7670   15.2900 N.4       1 LYS         0.2379
      2 CA          6.5830   18.0800   14.6910 C.3       1 LYS         0.0650
      3 C           5.3130   18.6050   15.3930 C.2       1 LYS         0.2267
      4 O           4.6050   17.8200   16.0220 O.2       1 LYS        -0.3907
      5 CB          6.3510   17.9640   13.1910 C.3       1 LYS         0.0080
      6 CG          5.3090   16.9790   12.6980 C.3       1 LYS        -0.0410
      7 CD          5.2500   16.7760   11.1990 C.3       1 LYS        -0.0123
      8 CE          6.5560   16.1890   10.6030 C.3       1 LYS        -0.0354
      9 NZ          6.6030   14.7040   10.9230 N.4       1 LYS         0.2185
     10 N           5.1170   19.8870   15.4630 N.am      1 ILE        -0.2608
     11 CA          3.9870   20.5050   16.1490 C.3       1 ILE         0.1336
     12 C           2.7000   20.5130   15.3080 C.2       1 ILE         0.2036
     13 O           2.6660   20.9040   14.1510 O.2       1 ILE        -0.3944
     14 CB          4.2470   21.9150   16.6540 C.3       1 ILE        -0.0037
     15 CG1         5.4060   21.8220   17.6980 C.3       1 ILE        -0.0491
     16 CG2         3.0410   22.5230   17.4160 C.3       1 ILE        -0.0582
     17 CD1         5.9390   23.2060   18.0320 C.3       1 ILE        -0.0648
     18 N           1.6200   20.0180   15.9740 N.am      1 LYS        -0.2695
     19 CA          0.3140   19.9840   15.3770 C.3       1 LYS         0.0944
     20 C          -0.6770   20.8030   16.2530 C.2       1 LYS         0.0601
     21 O          -1.5740   21.3820   15.6570 O.co2     1 LYS        -0.5666
     22 CB         -0.3030   18.5920   15.2490 C.3       1 LYS        -0.0177
     23 CG         -1.4270   18.6790   14.1740 C.3       1 LYS        -0.0446
     24 CD         -2.2020   17.3580   14.1790 C.3       1 LYS        -0.0125
     25 CE         -3.0300   17.2910   12.8620 C.3       1 LYS        -0.0354
     26 NZ         -3.6650   18.6220   12.6160 N.4       1 LYS         0.2185
     27 OXT        -0.5280   20.9380   17.4690 O.co2     1 LYS        -0.5666
     28 H1          7.8484   16.4416   14.8186 H         1 LYS         0.2015
     29 H2          6.2826   16.0873   15.1819 H         1 LYS         0.2015
     30 H3          7.2176   16.8942   16.2700 H         1 LYS         0.2015
     31 H4          7.3901   18.8096   14.8534 H         1 LYS         0.1098
     32 H5          7.3102   17.6788   12.7343 H         1 LYS         0.0346
     33 H6          6.0544   18.9597   12.8295 H         1 LYS         0.0346
     34 H7          4.3230   17.3372   13.0289 H         1 LYS         0.0270
     35 H8          5.5198   16.0043   13.1623 H         1 LYS         0.0270
     36 H9          5.0564   17.7487   10.7231 H         1 LYS         0.0317
     37 H10         4.4234   16.0863   10.9732 H         1 LYS         0.0317
     38 H11         7.4268   16.6928   11.0478 H         1 LYS         0.0813
     39 H12         6.5654   16.3347    9.5127 H         1 LYS         0.0813
     40 H13         7.4468   14.3049   10.5426 H         1 LYS         0.1994
     41 H14         5.8020   14.2470   10.5160 H         1 LYS         0.1994
     42 H15         6.5914   14.5751   11.9227 H         1 LYS         0.1994
     43 H16         5.7818   20.4879   15.0192 H         1 ILE         0.1885
     44 H17         3.7920   19.8808   17.0335 H         1 ILE         0.0803
     45 H18         4.5233   22.5650   15.8107 H         1 ILE         0.0345
     46 H19         6.2206   21.2123   17.2802 H         1 ILE         0.0267
     47 H20         5.0280   21.3491   18.6164 H         1 ILE         0.0267
     48 H21         2.1844   22.6160   16.7322 H         1 ILE         0.0235
     49 H22         3.3133   23.5172   17.7999 H         1 ILE         0.0235
     50 H23         2.7698   21.8671   18.2563 H         1 ILE         0.0235
     51 H24         6.7525   23.1180   18.7671 H         1 ILE         0.0230
     52 H25         5.1288   23.8191   18.4534 H         1 ILE         0.0230
     53 H26         6.3214   23.6823   17.1172 H         1 ILE         0.0230
     54 H27         1.7395   19.6689   16.9034 H         1 LYS         0.1875
     55 H28         0.3863   20.4321   14.3750 H         1 LYS         0.0726
     56 H29        -0.7287   18.2790   16.2138 H         1 LYS         0.0305
     57 H30         0.4633   17.8683   14.9342 H         1 LYS         0.0305
     58 H31        -0.9809   18.8445   13.1822 H         1 LYS         0.0269
     59 H32        -2.1070   19.5098   14.4135 H         1 LYS         0.0269
     60 H33        -2.8759   17.3221   15.0476 H         1 LYS         0.0317
     61 H34        -1.5004   16.5120   14.2240 H         1 LYS         0.0317
     62 H35        -3.8109   16.5220   12.9564 H         1 LYS         0.0813
     63 H36        -2.3663   17.0385   12.0219 H         1 LYS         0.0813
     64 H37        -4.2029   18.5854   11.7643 H         1 LYS         0.1994
     65 H38        -2.9483   19.3256   12.5307 H         1 LYS         0.1994
     66 H39        -4.2720   18.8524   13.3870 H         1 LYS         0.1994
@<TRIPOS>BOND
     1    3    2 1  
     2    2    5 1  
     3    2    1 1  
     4    5    6 1  
     5    6    7 1  
     6    7    8 1  
     7    8    9 1  
     8    3    4 2  
     9   12   11 1  
    10   11   14 1  
    11   11   10 1  
    12   14   15 1  
    13   14   16 1  
    14   15   17 1  
    15   12   13 2  
    16   19   20 1  
    17   19   22 1  
    18   18   19 1  
    19   22   23 1  
    20   23   24 1  
    21   24   25 1  
    22   25   26 1  
    23   20   27 ar 
    24   20   21 ar 
    25   10    3 am 
    26   12   18 am 
    27    1   28 1  
    28    1   29 1  
    29    1   30 1  
    30    2   31 1  
    31    5   32 1  
    32    5   33 1  
    33    6   34 1  
    34    6   35 1  
    35    7   36 1  
    36    7   37 1  
    37    8   38 1  
    38    8   39 1  
    39    9   40 1  
    40    9   41 1  
    41    9   42 1  
    42   10   43 1  
    43   11   44 1  
    44   14   45 1  
    45   15   46 1  
    46   15   47 1  
    47   16   48 1  
    48   16   49 1  
    49   16   50 1  
    50   17   51 1  
    51   17   52 1  
    52   17   53 1  
    53   18   54 1  
    54   19   55 1  
    55   22   56 1  
    56   22   57 1  
    57   23   58 1  
    58   23   59 1  
    59   24   60 1  
    60   24   61 1  
    61   25   62 1  
    62   25   63 1  
    63   26   64 1  
    64   26   65 1  
    65   26   66 1  
@<TRIPOS>SUBSTRUCTURE
     1 LYS         1

