### 
### Created by X-TOOL on Mon Sep 10 21:12:46 2018
### 

@<TRIPOS>MOLECULE
1b3l_ligand
   54    53     1     0     0
SMALL
GAST_HUCK


@<TRIPOS>ATOM
      1 N          55.2420    6.2450   94.2520 N.4       1 LYS         0.2379
      2 CA         54.8870    4.8000   94.0990 C.3       1 LYS         0.0650
      3 C          55.7900    4.1440   93.0250 C.2       1 LYS         0.2265
      4 O          56.2220    4.8330   92.0790 O.2       1 LYS        -0.3907
      5 CB         53.4070    4.6400   93.7230 C.3       1 LYS         0.0080
      6 CG         52.9970    5.5020   92.5310 C.3       1 LYS        -0.0410
      7 CD         51.5180    5.2160   92.1420 C.3       1 LYS        -0.0123
      8 CE         50.6320    6.1100   92.9960 C.3       1 LYS        -0.0354
      9 NZ         50.9360    7.5370   92.8540 N.4       1 LYS         0.2185
     10 N          56.0520    2.8700   93.2420 N.am      1 GLY        -0.2637
     11 CA         56.9980    2.1730   92.3600 C.3       1 GLY         0.1202
     12 C          56.3340    1.7810   91.0490 C.2       1 GLY         0.2002
     13 O          55.1590    1.4030   91.0950 O.2       1 GLY        -0.3947
     14 N          57.0540    1.8450   89.9370 N.am      1 LYS        -0.2697
     15 CA         56.5760    1.3980   88.6360 C.3       1 LYS         0.0944
     16 C          57.4930    0.3690   87.9530 C.2       1 LYS         0.0601
     17 O          56.9740   -0.4330   87.1210 O.co2     1 LYS        -0.5666
     18 CB         56.4110    2.5450   87.6560 C.3       1 LYS        -0.0177
     19 CG         55.3690    2.0920   86.5410 C.3       1 LYS        -0.0446
     20 CD         55.3460    3.2130   85.5280 C.3       1 LYS        -0.0125
     21 CE         54.6270    2.7790   84.2340 C.3       1 LYS        -0.0354
     22 NZ         53.4400    1.9760   84.5750 N.4       1 LYS         0.2185
     23 OXT        58.7360    0.3540   88.1410 O.co2     1 LYS        -0.5666
     24 H1         54.6502    6.6640   94.9522 H         1 LYS         0.2015
     25 H2         55.1088    6.7187   93.3723 H         1 LYS         0.2015
     26 H3         56.2061    6.3260   94.5347 H         1 LYS         0.2015
     27 H4         55.0593    4.2935   95.0601 H         1 LYS         0.1098
     28 H5         52.7925    4.9253   94.5896 H         1 LYS         0.0346
     29 H6         53.2210    3.5851   93.4729 H         1 LYS         0.0346
     30 H7         53.6485    5.2715   91.6752 H         1 LYS         0.0270
     31 H8         53.1034    6.5640   92.7973 H         1 LYS         0.0270
     32 H9         51.2784    4.1595   92.3328 H         1 LYS         0.0317
     33 H10        51.3609    5.4411   91.0768 H         1 LYS         0.0317
     34 H11        50.7658    5.8283   94.0509 H         1 LYS         0.0813
     35 H12        49.5847    5.9457   92.7026 H         1 LYS         0.0813
     36 H13        50.3173    8.0725   93.4426 H         1 LYS         0.1994
     37 H14        50.8087    7.8137   91.8931 H         1 LYS         0.1994
     38 H15        51.8910    7.7061   93.1287 H         1 LYS         0.1994
     39 H16        55.6123    2.3843   93.9975 H         1 GLY         0.1882
     40 H17        57.3593    1.2653   92.8656 H         1 GLY         0.0763
     41 H18        57.8484    2.8376   92.1477 H         1 GLY         0.0763
     42 H19        57.9784    2.2219   89.9953 H         1 LYS         0.1875
     43 H20        55.5933    0.9303   88.7960 H         1 LYS         0.0726
     44 H21        57.3790    2.7796   87.1892 H         1 LYS         0.0305
     45 H22        56.0324    3.4339   88.1818 H         1 LYS         0.0305
     46 H23        54.3710    1.9523   86.9820 H         1 LYS         0.0269
     47 H24        55.6957    1.1540   86.0684 H         1 LYS         0.0269
     48 H25        56.3801    3.4991   85.2855 H         1 LYS         0.0317
     49 H26        54.8183    4.0763   85.9596 H         1 LYS         0.0317
     50 H27        55.3119    2.1771   83.6186 H         1 LYS         0.0813
     51 H28        54.3161    3.6713   83.6708 H         1 LYS         0.0813
     52 H29        52.9713    1.6932   83.7286 H         1 LYS         0.1994
     53 H30        52.8120    2.5273   85.1387 H         1 LYS         0.1994
     54 H31        53.7245    1.1581   85.0909 H         1 LYS         0.1994
@<TRIPOS>BOND
     1    2    1 1  
     2    2    5 1  
     3    3    2 1  
     4    3    4 2  
     5    5    6 1  
     6    6    7 1  
     7    7    8 1  
     8    8    9 1  
     9   11   10 1  
    10   12   11 1  
    11   12   13 2  
    12   10    3 am 
    13   14   15 1  
    14   15   18 1  
    15   15   16 1  
    16   16   17 ar 
    17   16   23 ar 
    18   18   19 1  
    19   19   20 1  
    20   20   21 1  
    21   21   22 1  
    22   12   14 am 
    23    1   24 1  
    24    1   25 1  
    25    1   26 1  
    26    2   27 1  
    27    5   28 1  
    28    5   29 1  
    29    6   30 1  
    30    6   31 1  
    31    7   32 1  
    32    7   33 1  
    33    8   34 1  
    34    8   35 1  
    35    9   36 1  
    36    9   37 1  
    37    9   38 1  
    38   10   39 1  
    39   11   40 1  
    40   11   41 1  
    41   14   42 1  
    42   15   43 1  
    43   18   44 1  
    44   18   45 1  
    45   19   46 1  
    46   19   47 1  
    47   20   48 1  
    48   20   49 1  
    49   21   50 1  
    50   21   51 1  
    51   22   52 1  
    52   22   53 1  
    53   22   54 1  
@<TRIPOS>SUBSTRUCTURE
     1 LYS         1

