### 
### Created by X-TOOL on Mon Sep 10 21:12:47 2018
### 

@<TRIPOS>MOLECULE
1b42_ligand
   19    20     1     0     0
SMALL
GAST_HUCK


@<TRIPOS>ATOM
      1 N9         18.5840   12.3140   19.6800 N.pl3     1 M1A        -0.1867
      2 C8         18.9520   13.3950   18.9240 C.2       1 M1A         0.1805
      3 N7         18.3390   14.5040   19.2460 N.2       1 M1A        -0.1850
      4 C5         17.4970   14.1420   20.3050 C.ar      1 M1A         0.2149
      5 C6         16.5740   14.8800   21.1070 C.ar      1 M1A         0.2126
      6 N6         16.3460   16.1760   20.9850 N.pl3     1 M1A        -0.2695
      7 N1         15.9140   14.2170   22.0590 N.ar      1 M1A        -0.2820
      8 C2         16.1580   12.9120   22.2200 C.ar      1 M1A         0.1079
      9 N3         16.9980   12.0940   21.5610 N.ar      1 M1A        -0.1865
     10 C4         17.6440   12.7980   20.5810 C.ar      1 M1A         0.2445
     11 CN1        14.9780   14.9840   22.8580 C.3       1 M1A         0.0071
     12 H1         18.9306   11.3475   19.5980 H         1 M1A         0.2587
     13 H2         19.6899   13.3361   18.1253 H         1 M1A         0.1824
     14 H3         16.8376   16.7195   20.2612 H         1 M1A         0.2257
     15 H4         15.6767   16.6426   21.6137 H         1 M1A         0.2257
     16 H5         15.5865   12.4367   23.0090 H         1 M1A         0.1344
     17 H6         14.9730   16.0290   22.5144 H         1 M1A         0.0384
     18 H7         15.2815   14.9469   23.9146 H         1 M1A         0.0384
     19 H8         13.9695   14.5581   22.7510 H         1 M1A         0.0384
@<TRIPOS>BOND
     1   10    1 1  
     2    1    2 1  
     3    2    3 2  
     4    3    4 1  
     5    4   10 ar 
     6    4    5 ar 
     7    5    7 ar 
     8    5    6 1  
     9    7   11 1  
    10    7    8 ar 
    11    8    9 ar 
    12    9   10 ar 
    13    1   12 1  
    14    2   13 1  
    15    6   14 1  
    16    6   15 1  
    17    8   16 1  
    18   11   17 1  
    19   11   18 1  
    20   11   19 1  
@<TRIPOS>SUBSTRUCTURE
     1 M1A         1

