### 
### Created by X-TOOL on Mon Sep 10 21:12:46 2018
### 

@<TRIPOS>MOLECULE
1b46_ligand
   61    61     1     0     0
SMALL
GAST_HUCK


@<TRIPOS>ATOM
      1 N           6.7660   16.3870   15.1390 N.4       1 LYS         0.2379
      2 CA          6.3140   17.7280   14.6600 C.3       1 LYS         0.0652
      3 C           5.0830   18.1570   15.4200 C.2       1 LYS         0.2292
      4 O           4.1450   17.3810   15.6580 O.2       1 LYS        -0.3905
      5 CB          6.0390   17.6230   13.1280 C.3       1 LYS         0.0080
      6 CG          5.0770   16.5230   12.6910 C.3       1 LYS        -0.0410
      7 CD          4.9850   16.4040   11.1500 C.3       1 LYS        -0.0123
      8 CE          6.2050   15.7360   10.5340 C.3       1 LYS        -0.0354
      9 NZ          6.3720   14.3080   10.9700 N.4       1 LYS         0.2185
     10 N           4.9700   19.4160   15.8200 N.am      1 PRO        -0.2471
     11 CA          3.7360   19.9220   16.4280 C.3       1 PRO         0.1339
     12 C           2.5470   19.8630   15.4810 C.2       1 PRO         0.2035
     13 O           2.6260   20.1430   14.2660 O.2       1 PRO        -0.3944
     14 CB          4.0770   21.3960   16.7230 C.3       1 PRO        -0.0104
     15 CG          5.5800   21.3400   16.8930 C.3       1 PRO        -0.0281
     16 CD          6.0190   20.4540   15.7250 C.3       1 PRO         0.0371
     17 N           1.3760   19.5380   16.0320 N.am      1 LYS        -0.2695
     18 CA          0.1360   19.4660   15.3030 C.3       1 LYS         0.0944
     19 C          -0.9460   20.2840   16.0330 C.2       1 LYS         0.0601
     20 O          -1.9040   20.6800   15.3660 O.co2     1 LYS        -0.5666
     21 CB         -0.4030   18.0340   15.1640 C.3       1 LYS        -0.0177
     22 CG         -1.4620   18.0400   14.0310 C.3       1 LYS        -0.0446
     23 CD         -2.1740   16.6980   14.0750 C.3       1 LYS        -0.0125
     24 CE         -3.4740   16.7950   13.2670 C.3       1 LYS        -0.0354
     25 NZ         -3.0760   16.7440   11.8380 N.4       1 LYS         0.2185
     26 OXT        -0.7610   20.6360   17.2110 O.co2     1 LYS        -0.5666
     27 H1          7.5881   16.1070   14.6273 H         1 LYS         0.2015
     28 H2          6.0320   15.7123   14.9907 H         1 LYS         0.2015
     29 H3          6.9830   16.4369   16.1221 H         1 LYS         0.2015
     30 H4          7.1106   18.4666   14.8329 H         1 LYS         0.1098
     31 H5          7.0014   17.4464   12.6254 H         1 LYS         0.0346
     32 H6          5.6225   18.5850   12.7949 H         1 LYS         0.0346
     33 H7          4.0767   16.7486   13.0891 H         1 LYS         0.0270
     34 H8          5.4267   15.5636   13.1000 H         1 LYS         0.0270
     35 H9          4.8859   17.4138   10.7253 H         1 LYS         0.0317
     36 H10         4.0943   15.8104   10.8963 H         1 LYS         0.0317
     37 H11         7.1014   16.3005   10.8302 H         1 LYS         0.0813
     38 H12         6.1024   15.7589    9.4390 H         1 LYS         0.0813
     39 H13         7.1921   13.9171   10.5333 H         1 LYS         0.1994
     40 H14         5.5603   13.7762   10.6972 H         1 LYS         0.1994
     41 H15         6.4757   14.2725   11.9720 H         1 LYS         0.1994
     42 H16         3.5003   19.3700   17.3498 H         1 PRO         0.0802
     43 H17         3.5831   21.7449   17.6419 H         1 PRO         0.0313
     44 H18         3.7932   22.0481   15.8838 H         1 PRO         0.0313
     45 H19         6.0250   22.3432   16.8187 H         1 PRO         0.0287
     46 H20         5.8532   20.8881   17.8580 H         1 PRO         0.0287
     47 H21         5.9846   20.9894   14.7647 H         1 PRO         0.0524
     48 H22         7.0261   20.0387   15.8774 H         1 PRO         0.0524
     49 H23         1.3583   19.3319   17.0104 H         1 LYS         0.1875
     50 H24         0.2999   19.8841   14.2988 H         1 LYS         0.0726
     51 H25        -0.8664   17.7142   16.1089 H         1 LYS         0.0305
     52 H26         0.4173   17.3476   14.9071 H         1 LYS         0.0305
     53 H27        -0.9704   18.1741   13.0562 H         1 LYS         0.0269
     54 H28        -2.1830   18.8547   14.1932 H         1 LYS         0.0269
     55 H29        -2.4069   16.4382   15.1182 H         1 LYS         0.0317
     56 H30        -1.5264   15.9226   13.6398 H         1 LYS         0.0317
     57 H31        -3.9897   17.7416   13.4859 H         1 LYS         0.0813
     58 H32        -4.1374   15.9515   13.5087 H         1 LYS         0.0813
     59 H33        -3.8981   16.8045   11.2579 H         1 LYS         0.1994
     60 H34        -2.5975   15.8763   11.6532 H         1 LYS         0.1994
     61 H35        -2.4622   17.5166   11.6324 H         1 LYS         0.1994
@<TRIPOS>BOND
     1    2    1 1  
     2    2    5 1  
     3    3    2 1  
     4    3    4 2  
     5    5    6 1  
     6    6    7 1  
     7    7    8 1  
     8    8    9 1  
     9   12   11 1  
    10   11   14 1  
    11   11   10 1  
    12   10   16 1  
    13   16   15 1  
    14   14   15 1  
    15   12   13 2  
    16   10    3 am 
    17   17   18 1  
    18   18   21 1  
    19   18   19 1  
    20   19   20 ar 
    21   19   26 ar 
    22   21   22 1  
    23   22   23 1  
    24   23   24 1  
    25   24   25 1  
    26   12   17 am 
    27    1   27 1  
    28    1   28 1  
    29    1   29 1  
    30    2   30 1  
    31    5   31 1  
    32    5   32 1  
    33    6   33 1  
    34    6   34 1  
    35    7   35 1  
    36    7   36 1  
    37    8   37 1  
    38    8   38 1  
    39    9   39 1  
    40    9   40 1  
    41    9   41 1  
    42   11   42 1  
    43   14   43 1  
    44   14   44 1  
    45   15   45 1  
    46   15   46 1  
    47   16   47 1  
    48   16   48 1  
    49   17   49 1  
    50   18   50 1  
    51   21   51 1  
    52   21   52 1  
    53   22   53 1  
    54   22   54 1  
    55   23   55 1  
    56   23   56 1  
    57   24   57 1  
    58   24   58 1  
    59   25   59 1  
    60   25   60 1  
    61   25   61 1  
@<TRIPOS>SUBSTRUCTURE
     1 LYS         1

