### 
### Created by X-TOOL on Mon Sep 10 21:12:46 2018
### 

@<TRIPOS>MOLECULE
1b4d_ligand
   35    35     1     0     0
SMALL
GAST_HUCK


@<TRIPOS>ATOM
      1 N1         33.3630   25.2410   28.1040 N.am      1 CRA        -0.2959
      2 C2         33.9560   23.1370   25.8820 C.3       1 CRA         0.1419
      3 O2         34.1310   24.4680   25.5230 O.3       1 CRA        -0.3851
      4 C4         32.3710   21.1550   25.6640 C.3       1 CRA         0.1115
      5 C5         32.2940   21.0510   27.2240 C.3       1 CRA         0.1112
      6 C6         32.1090   19.6110   27.6020 C.3       1 CRA         0.0728
      7 C1         33.9520   22.9090   27.4640 C.3       1 CRA         0.2670
      8 C3         32.6680   22.6480   25.2640 C.3       1 CRA         0.1133
      9 O3         32.7830   22.7610   23.8650 O.3       1 CRA        -0.3866
     10 O4         31.1550   20.7510   25.0820 O.3       1 CRA        -0.3865
     11 O5         33.5270   21.5500   27.8120 O.3       1 CRA        -0.3391
     12 N2         35.3250   22.9710   27.9110 N.am      1 CRA        -0.2271
     13 O6         33.2170   18.8720   27.1250 O.3       1 CRA        -0.3924
     14 C7         35.7640   23.3140   29.1180 C.2       1 CRA         0.3202
     15 O7         35.0150   23.5810   30.0650 O.2       1 CRA        -0.3776
     16 C8         37.6990   23.6180   30.5550 C.3       1 CRA         0.0663
     17 O8         37.1620   23.3150   29.2510 O.3       1 CRA        -0.2673
     18 C9         33.0630   23.9520   28.2370 C.2       1 CRA         0.2526
     19 O9         31.9930   23.5720   28.7320 O.2       1 CRA        -0.3394
     20 H1         32.8200   25.9325   28.5804 H         1 CRA         0.1822
     21 H2         34.1316   25.5186   27.5276 H         1 CRA         0.1822
     22 H3         34.7903   22.5554   25.4629 H         1 CRA         0.0658
     23 H4         34.1250   24.5428   24.5760 H         1 CRA         0.2099
     24 H5         33.1810   20.5078   25.2964 H         1 CRA         0.0647
     25 H6         31.4443   21.6441   27.5930 H         1 CRA         0.0644
     26 H7         31.1838   19.2251   27.1491 H         1 CRA         0.0584
     27 H8         32.0470   19.5204   28.6965 H         1 CRA         0.0584
     28 H9         31.8379   23.2792   25.6140 H         1 CRA         0.0646
     29 H10        32.9620   23.6652   23.6351 H         1 CRA         0.2100
     30 H11        30.4539   21.3104   25.3954 H         1 CRA         0.2100
     31 H12        36.0228   22.7288   27.2369 H         1 CRA         0.1878
     32 H13        34.0138   19.2096   27.5169 H         1 CRA         0.2095
     33 H14        38.7978   23.5841   30.5159 H         1 CRA         0.0575
     34 H15        37.3350   22.8776   31.2826 H         1 CRA         0.0575
     35 H16        37.3739   24.6233   30.8609 H         1 CRA         0.0575
@<TRIPOS>BOND
     1   18    1 am 
     2    2    3 1  
     3    7    2 1  
     4    2    8 1  
     5    5    4 1  
     6    8    4 1  
     7    4   10 1  
     8    5    6 1  
     9   11    5 1  
    10    6   13 1  
    11    7   11 1  
    12    7   12 1  
    13    7   18 1  
    14    8    9 1  
    15   12   14 am 
    16   14   15 2  
    17   14   17 1  
    18   17   16 1  
    19   18   19 2  
    20    1   20 1  
    21    1   21 1  
    22    2   22 1  
    23    3   23 1  
    24    4   24 1  
    25    5   25 1  
    26    6   26 1  
    27    6   27 1  
    28    8   28 1  
    29    9   29 1  
    30   10   30 1  
    31   12   31 1  
    32   13   32 1  
    33   16   33 1  
    34   16   34 1  
    35   16   35 1  
@<TRIPOS>SUBSTRUCTURE
     1 CRA         1

