### 
### Created by X-TOOL on Mon Sep 10 21:12:46 2018
### 

@<TRIPOS>MOLECULE
1b4h_ligand
   63    62     1     0     0
SMALL
GAST_HUCK


@<TRIPOS>ATOM
      1 N           6.9040   16.5060   15.2410 N.4       1 LYS         0.2379
      2 CA          6.4100   17.7980   14.6260 C.3       1 LYS         0.0650
      3 C           5.1890   18.2950   15.3860 C.2       1 LYS         0.2267
      4 O           4.4070   17.5010   15.9320 O.2       1 LYS        -0.3907
      5 CB          6.1910   17.6980   13.1300 C.3       1 LYS         0.0080
      6 CG          5.1980   16.6440   12.6470 C.3       1 LYS        -0.0410
      7 CD          5.1970   16.5160   11.1200 C.3       1 LYS        -0.0123
      8 CE          6.4830   15.8710   10.5660 C.3       1 LYS        -0.0354
      9 NZ          6.5800   14.4150   10.9420 N.4       1 LYS         0.2185
     10 N           5.0230   19.6170   15.4400 N.am      1 DAB        -0.2608
     11 CA          3.9130   20.2380   16.1670 C.3       1 DAB         0.1359
     12 C           2.6180   20.2370   15.3780 C.2       1 DAB         0.2035
     13 O           2.6140   20.4860   14.1800 O.2       1 DAB        -0.3944
     14 CB          4.2460   21.7250   16.4190 C.3       1 DAB         0.0278
     15 CG          5.3280   21.7390   17.5140 C.3       1 DAB        -0.0311
     16 ND          4.8950   21.6090   18.8560 N.4       1 DAB         0.2187
     17 N           1.5270   19.8830   16.0720 N.am      1 LYS        -0.2695
     18 CA          0.2520   19.8540   15.4020 C.3       1 LYS         0.0944
     19 C          -0.7500   20.7010   16.2050 C.2       1 LYS         0.0601
     20 O          -1.7660   21.0200   15.5720 O.co2     1 LYS        -0.5666
     21 CB         -0.3560   18.4420   15.2850 C.3       1 LYS        -0.0177
     22 CG         -1.3050   18.4360   14.0740 C.3       1 LYS        -0.0446
     23 CD         -2.2080   17.2240   14.1400 C.3       1 LYS        -0.0125
     24 CE         -2.6000   16.7050   12.7880 C.3       1 LYS        -0.0354
     25 NZ         -3.6240   17.4370   12.0800 N.4       1 LYS         0.2185
     26 OXT        -0.5670   21.0090   17.3870 O.co2     1 LYS        -0.5666
     27 H1          7.7125   16.1805   14.7347 H         1 LYS         0.2015
     28 H2          6.1755   15.8110   15.1933 H         1 LYS         0.2015
     29 H3          7.1530   16.6661   16.2045 H         1 LYS         0.2015
     30 H4          7.2030   18.5463   14.7713 H         1 LYS         0.1098
     31 H5          7.1632   17.4762   12.6658 H         1 LYS         0.0346
     32 H6          5.8326   18.6774   12.7803 H         1 LYS         0.0346
     33 H7          4.1888   16.9271   12.9806 H         1 LYS         0.0270
     34 H8          5.4699   15.6723   13.0849 H         1 LYS         0.0270
     35 H9          5.0939   17.5209   10.6846 H         1 LYS         0.0317
     36 H10         4.3382   15.8970   10.8212 H         1 LYS         0.0317
     37 H11         7.3542   16.4039   10.9746 H         1 LYS         0.0813
     38 H12         6.4817   15.9571    9.4694 H         1 LYS         0.0813
     39 H13         7.4301   14.0265   10.5646 H         1 LYS         0.1994
     40 H14         5.7877   13.9175   10.5668 H         1 LYS         0.1994
     41 H15         6.5872   14.3270   11.9461 H         1 LYS         0.1994
     42 H16         5.6793   20.2053   14.9676 H         1 DAB         0.1885
     43 H17         3.7671   19.7088   17.1202 H         1 DAB         0.0802
     44 H18         3.3502   22.2646   16.7602 H         1 DAB         0.0364
     45 H19         4.6274   22.1923   15.4991 H         1 DAB         0.0364
     46 H20         5.8687   22.6934   17.4322 H         1 DAB         0.0815
     47 H21         6.0181   20.9077   17.3074 H         1 DAB         0.0815
     48 H22         5.6937   21.6329   19.4705 H         1 DAB         0.1994
     49 H23         4.4101   20.7326   18.9692 H         1 DAB         0.1994
     50 H24         4.2732   22.3690   19.0836 H         1 DAB         0.1994
     51 H25         1.5972   19.6427   17.0402 H         1 LYS         0.1875
     52 H26         0.3767   20.2747   14.3933 H         1 LYS         0.0726
     53 H27        -0.9160   18.1989   16.2001 H         1 LYS         0.0305
     54 H28         0.4438   17.7015   15.1369 H         1 LYS         0.0305
     55 H29        -0.7143   18.4018   13.1467 H         1 LYS         0.0269
     56 H30        -1.9177   19.3495   14.0850 H         1 LYS         0.0269
     57 H31        -3.1217   17.4981   14.6876 H         1 LYS         0.0317
     58 H32        -1.6814   16.4247   14.6821 H         1 LYS         0.0317
     59 H33        -2.9590   15.6735   12.9190 H         1 LYS         0.0813
     60 H34        -1.6979   16.7021   12.1585 H         1 LYS         0.0813
     61 H35        -3.7994   16.9949   11.1913 H         1 LYS         0.1994
     62 H36        -3.3159   18.3848   11.9288 H         1 LYS         0.1994
     63 H37        -4.4715   17.4422   12.6257 H         1 LYS         0.1994
@<TRIPOS>BOND
     1    3    2 1  
     2    2    5 1  
     3    2    1 1  
     4    5    6 1  
     5    6    7 1  
     6    7    8 1  
     7    8    9 1  
     8    3    4 2  
     9   11   10 1  
    10   11   14 1  
    11   12   11 1  
    12   12   13 2  
    13   14   15 1  
    14   15   16 1  
    15   18   19 1  
    16   18   21 1  
    17   17   18 1  
    18   21   22 1  
    19   22   23 1  
    20   23   24 1  
    21   24   25 1  
    22   19   26 ar 
    23   19   20 ar 
    24   10    3 am 
    25   12   17 am 
    26    1   27 1  
    27    1   28 1  
    28    1   29 1  
    29    2   30 1  
    30    5   31 1  
    31    5   32 1  
    32    6   33 1  
    33    6   34 1  
    34    7   35 1  
    35    7   36 1  
    36    8   37 1  
    37    8   38 1  
    38    9   39 1  
    39    9   40 1  
    40    9   41 1  
    41   10   42 1  
    42   11   43 1  
    43   14   44 1  
    44   14   45 1  
    45   15   46 1  
    46   15   47 1  
    47   16   48 1  
    48   16   49 1  
    49   16   50 1  
    50   17   51 1  
    51   18   52 1  
    52   21   53 1  
    53   21   54 1  
    54   22   55 1  
    55   22   56 1  
    56   23   57 1  
    57   23   58 1  
    58   24   59 1  
    59   24   60 1  
    60   25   61 1  
    61   25   62 1  
    62   25   63 1  
@<TRIPOS>SUBSTRUCTURE
     1 LYS         1

