### 
### Created by X-TOOL on Mon Sep 10 21:12:46 2018
### 

@<TRIPOS>MOLECULE
1b51_ligand
   58    57     1     0     0
SMALL
GAST_HUCK


@<TRIPOS>ATOM
      1 N           6.8910   16.4790   15.0950 N.4       1 LYS         0.2379
      2 CA          6.3900   17.7900   14.5770 C.3       1 LYS         0.0650
      3 C           5.1740   18.2680   15.3430 C.2       1 LYS         0.2268
      4 O           4.4150   17.4750   15.8880 O.2       1 LYS        -0.3907
      5 CB          6.1120   17.7260   13.0640 C.3       1 LYS         0.0080
      6 CG          5.2320   16.5440   12.6860 C.3       1 LYS        -0.0410
      7 CD          5.1210   16.4580   11.1480 C.3       1 LYS        -0.0123
      8 CE          6.3950   15.8780   10.5460 C.3       1 LYS        -0.0354
      9 NZ          6.5490   14.4230   10.8820 N.4       1 LYS         0.2185
     10 N           5.0030   19.5780   15.4000 N.am      1 SER        -0.2589
     11 CA          3.9490   20.2090   16.1900 C.3       1 SER         0.1540
     12 C           2.6020   20.2310   15.5050 C.2       1 SER         0.2056
     13 O           2.5430   20.5580   14.3230 O.2       1 SER        -0.3943
     14 CB          4.4210   21.6540   16.4120 C.3       1 SER         0.0843
     15 OG          3.8300   22.1840   17.5950 O.3       1 SER        -0.3903
     16 N           1.4950   19.9330   16.2360 N.am      1 LYS        -0.2694
     17 CA          0.2360   19.8690   15.5110 C.3       1 LYS         0.0944
     18 C          -0.8680   20.6600   16.2440 C.2       1 LYS         0.0601
     19 O          -0.7500   20.9240   17.4390 O.co2     1 LYS        -0.5666
     20 CB         -0.3000   18.4420   15.3170 C.3       1 LYS        -0.0177
     21 CG         -1.3690   18.4670   14.1820 C.3       1 LYS        -0.0446
     22 CD         -1.9810   17.1150   13.9430 C.3       1 LYS        -0.0125
     23 CE         -2.9390   17.0470   12.7500 C.3       1 LYS        -0.0354
     24 NZ         -3.7030   18.3150   12.6290 N.4       1 LYS         0.2185
     25 OXT        -1.8020   21.0200   15.5080 O.co2     1 LYS        -0.5666
     26 H1          7.6981   16.1937   14.5627 H         1 LYS         0.2015
     27 H2          6.1668   15.7836   15.0059 H         1 LYS         0.2015
     28 H3          7.1458   16.5763   16.0654 H         1 LYS         0.2015
     29 H4          7.1878   18.5308   14.7337 H         1 LYS         0.1098
     30 H5          7.0707   17.6371   12.5320 H         1 LYS         0.0346
     31 H6          5.6074   18.6543   12.7579 H         1 LYS         0.0346
     32 H7          4.2300   16.6791   13.1192 H         1 LYS         0.0270
     33 H8          5.6772   15.6161   13.0742 H         1 LYS         0.0270
     34 H9          4.9565   17.4667   10.7412 H         1 LYS         0.0317
     35 H10         4.2706   15.8126   10.8832 H         1 LYS         0.0317
     36 H11         7.2606   16.4297   10.9414 H         1 LYS         0.0813
     37 H12         6.3570   15.9902    9.4524 H         1 LYS         0.0813
     38 H13         7.3990   14.0712   10.4700 H         1 LYS         0.1994
     39 H14         5.7617   13.9090   10.5186 H         1 LYS         0.1994
     40 H15         6.5898   14.3118   11.8830 H         1 LYS         0.1994
     41 H16         5.6237   20.1634   14.8784 H         1 SER         0.1885
     42 H17         3.8479   19.6851   17.1519 H         1 SER         0.0823
     43 H18         4.1256   22.2701   15.5499 H         1 SER         0.0606
     44 H19         5.5161   21.6677   16.5145 H         1 SER         0.0606
     45 H20         4.1276   23.0769   17.7236 H         1 SER         0.2097
     46 H21         1.5440   19.7665   17.2208 H         1 LYS         0.1875
     47 H22         0.4001   20.3169   14.5198 H         1 LYS         0.0726
     48 H23        -0.7590   18.0874   16.2516 H         1 LYS         0.0305
     49 H24         0.5246   17.7706   15.0357 H         1 LYS         0.0305
     50 H25        -0.8896   18.8073   13.2523 H         1 LYS         0.0269
     51 H26        -2.1661   19.1712   14.4626 H         1 LYS         0.0269
     52 H27        -2.5383   16.8268   14.8465 H         1 LYS         0.0317
     53 H28        -1.1666   16.3962   13.7696 H         1 LYS         0.0317
     54 H29        -3.6412   16.2129   12.8956 H         1 LYS         0.0813
     55 H30        -2.3604   16.8828   11.8290 H         1 LYS         0.0813
     56 H31        -4.3287   18.2563   11.8409 H         1 LYS         0.1994
     57 H32        -3.0626   19.0815   12.4932 H         1 LYS         0.1994
     58 H33        -4.2362   18.4676   13.4707 H         1 LYS         0.1994
@<TRIPOS>BOND
     1    2    1 1  
     2    2    5 1  
     3    3    2 1  
     4    3    4 2  
     5    5    6 1  
     6    6    7 1  
     7    7    8 1  
     8    8    9 1  
     9   11   10 1  
    10   11   14 1  
    11   12   11 1  
    12   12   13 2  
    13   14   15 1  
    14   10    3 am 
    15   16   17 1  
    16   17   20 1  
    17   17   18 1  
    18   18   19 ar 
    19   18   25 ar 
    20   20   21 1  
    21   21   22 1  
    22   22   23 1  
    23   23   24 1  
    24   12   16 am 
    25    1   26 1  
    26    1   27 1  
    27    1   28 1  
    28    2   29 1  
    29    5   30 1  
    30    5   31 1  
    31    6   32 1  
    32    6   33 1  
    33    7   34 1  
    34    7   35 1  
    35    8   36 1  
    36    8   37 1  
    37    9   38 1  
    38    9   39 1  
    39    9   40 1  
    40   10   41 1  
    41   11   42 1  
    42   14   43 1  
    43   14   44 1  
    44   15   45 1  
    45   16   46 1  
    46   17   47 1  
    47   20   48 1  
    48   20   49 1  
    49   21   50 1  
    50   21   51 1  
    51   22   52 1  
    52   22   53 1  
    53   23   54 1  
    54   23   55 1  
    55   24   56 1  
    56   24   57 1  
    57   24   58 1  
@<TRIPOS>SUBSTRUCTURE
     1 LYS         1

