### 
### Created by X-TOOL on Mon Sep 10 21:12:47 2018
### 

@<TRIPOS>MOLECULE
1b56_ligand
   49    48     1     0     0
SMALL
GAST_HUCK


@<TRIPOS>ATOM
      1 C1         46.9440   22.4560   32.6530 C.2       1 PLM         0.0348
      2 O1         47.6130   21.6520   32.0150 O.co2     1 PLM        -0.5690
      3 O2         45.7460   22.2220   32.7550 O.co2     1 PLM        -0.5690
      4 C2         47.4950   23.6320   33.1280 C.3       1 PLM         0.0002
      5 C3         47.4530   24.6280   32.1700 C.3       1 PLM        -0.0414
      6 C4         48.6580   24.6830   31.5030 C.3       1 PLM        -0.0516
      7 C5         48.3540   25.0960   30.2210 C.3       1 PLM        -0.0530
      8 C6         49.0230   26.2680   29.9430 C.3       1 PLM        -0.0531
      9 C7         48.9680   26.4820   28.5830 C.3       1 PLM        -0.0531
     10 C8         47.7520   27.0350   28.2800 C.3       1 PLM        -0.0531
     11 C9         47.9110   27.5620   27.0260 C.3       1 PLM        -0.0531
     12 CA         46.7070   28.1150   26.6530 C.3       1 PLM        -0.0531
     13 CB         46.1320   27.2050   25.8000 C.3       1 PLM        -0.0531
     14 CC         44.9410   27.7410   25.3400 C.3       1 PLM        -0.0531
     15 CD         44.3090   26.8400   24.4940 C.3       1 PLM        -0.0531
     16 CE         43.5990   25.9230   25.2540 C.3       1 PLM        -0.0533
     17 CF         44.2780   24.7150   25.2800 C.3       1 PLM        -0.0559
     18 CG         43.6350   23.8680   26.1590 C.3       1 PLM        -0.0653
     19 H1         48.5426   23.4492   33.4094 H         1 PLM         0.0430
     20 H2         46.9298   23.9612   34.0124 H         1 PLM         0.0430
     21 H3         47.2602   25.5954   32.6567 H         1 PLM         0.0283
     22 H4         46.6477   24.4115   31.4526 H         1 PLM         0.0283
     23 H5         49.1323   23.6907   31.4844 H         1 PLM         0.0266
     24 H6         49.3331   25.4031   31.9884 H         1 PLM         0.0266
     25 H7         47.2702   25.2644   30.1378 H         1 PLM         0.0265
     26 H8         48.6607   24.3203   29.5039 H         1 PLM         0.0265
     27 H9         50.0715   26.1838   30.2647 H         1 PLM         0.0265
     28 H10        48.5434   27.1051   30.4715 H         1 PLM         0.0265
     29 H11        49.0837   25.5258   28.0517 H         1 PLM         0.0265
     30 H12        49.7732   27.1684   28.2823 H         1 PLM         0.0265
     31 H13        47.4941   27.8237   29.0021 H         1 PLM         0.0265
     32 H14        46.9655   26.2660   28.2804 H         1 PLM         0.0265
     33 H15        48.1949   26.7689   26.3187 H         1 PLM         0.0265
     34 H16        48.6915   28.3370   27.0406 H         1 PLM         0.0265
     35 H17        46.8676   29.0745   26.1396 H         1 PLM         0.0265
     36 H18        46.0675   28.2730   27.5339 H         1 PLM         0.0265
     37 H19        45.9356   26.2643   26.3353 H         1 PLM         0.0265
     38 H20        46.8056   27.0108   24.9524 H         1 PLM         0.0265
     39 H21        45.1484   28.6715   24.7913 H         1 PLM         0.0265
     40 H22        44.2850   27.9584   26.1958 H         1 PLM         0.0265
     41 H23        45.0616   26.3127   23.8895 H         1 PLM         0.0265
     42 H24        43.6185   27.3807   23.8300 H         1 PLM         0.0265
     43 H25        42.6032   25.7736   24.8112 H         1 PLM         0.0265
     44 H26        43.4906   26.3040   26.2802 H         1 PLM         0.0265
     45 H27        45.3133   24.8788   25.6135 H         1 PLM         0.0263
     46 H28        44.2828   24.2707   24.2737 H         1 PLM         0.0263
     47 H29        44.1627   22.9034   26.1909 H         1 PLM         0.0230
     48 H30        42.5996   23.7086   25.8236 H         1 PLM         0.0230
     49 H31        43.6301   24.3167   27.1633 H         1 PLM         0.0230
@<TRIPOS>BOND
     1    1    2 ar 
     2    1    3 ar 
     3    1    4 1  
     4    4    5 1  
     5    5    6 1  
     6    6    7 1  
     7    7    8 1  
     8    8    9 1  
     9    9   10 1  
    10   10   11 1  
    11   11   12 1  
    12   12   13 1  
    13   13   14 1  
    14   14   15 1  
    15   15   16 1  
    16   16   17 1  
    17   17   18 1  
    18    4   19 1  
    19    4   20 1  
    20    5   21 1  
    21    5   22 1  
    22    6   23 1  
    23    6   24 1  
    24    7   25 1  
    25    7   26 1  
    26    8   27 1  
    27    8   28 1  
    28    9   29 1  
    29    9   30 1  
    30   10   31 1  
    31   10   32 1  
    32   11   33 1  
    33   11   34 1  
    34   12   35 1  
    35   12   36 1  
    36   13   37 1  
    37   13   38 1  
    38   14   39 1  
    39   14   40 1  
    40   15   41 1  
    41   15   42 1  
    42   16   43 1  
    43   16   44 1  
    44   17   45 1  
    45   17   46 1  
    46   18   47 1  
    47   18   48 1  
    48   18   49 1  
@<TRIPOS>SUBSTRUCTURE
     1 PLM         1

