### 
### Created by X-TOOL on Mon Sep 10 21:12:46 2018
### 

@<TRIPOS>MOLECULE
1b5g_ligand
   79    83     1     0     0
SMALL
GAST_HUCK


@<TRIPOS>ATOM
      1 C1         16.4090  -12.7630   20.1670 C.2       1 0ZE         0.2026
      2 O1         15.9940  -13.7530   19.5710 O.2       1 0ZE        -0.3945
      3 C2         17.7970  -12.7800   20.8170 C.3       1 0ZE         0.1342
      4 C3         18.9650  -12.7520   19.8060 C.3       1 0ZE        -0.0099
      5 C4         19.4410  -14.2310   19.7100 C.3       1 0ZE        -0.0251
      6 C5         19.3420  -14.6980   21.1760 C.3       1 0ZE         0.0483
      7 C6         19.3860  -16.2100   21.4240 C.3       1 0ZE        -0.0246
      8 C7         18.7590  -16.6540   22.7340 C.3       1 0ZE         0.0047
      9 C8         17.4970  -15.8880   23.1740 C.3       1 0ZE         0.0776
     10 C9         17.2390  -14.5030   22.5070 C.2       1 0ZE         0.2544
     11 O2         16.1710  -13.9540   22.7370 O.2       1 0ZE        -0.3378
     12 N1         18.0630  -14.0350   21.5470 N.am      1 0ZE        -0.2430
     13 N2         17.4410  -15.7980   24.6440 N.4       1 0ZE         0.2242
     14 C10        16.2530  -16.6920   22.7090 C.3       1 0ZE         0.0345
     15 C11        16.4480  -18.1420   23.1610 C.ar      1 0ZE        -0.0383
     16 C12        17.3280  -18.9820   22.4920 C.ar      1 0ZE        -0.0603
     17 C13        17.5160  -20.3040   22.9380 C.ar      1 0ZE        -0.0686
     18 C14        16.8030  -20.7720   24.0410 C.ar      1 0ZE        -0.0687
     19 C15        15.8810  -19.9380   24.6970 C.ar      1 0ZE        -0.0686
     20 C16        15.6990  -18.6270   24.2420 C.ar      1 0ZE        -0.0603
     21 N          15.6720  -11.6230   20.2770 N.am      1 0ZE        -0.2764
     22 CA         14.3470  -11.5840   19.6000 C.3       1 0ZE         0.0862
     23 C          14.5720  -10.7420   18.3200 C.3       1 0ZE         0.1518
     24 O          13.5590  -10.2060   17.7980 O.3       1 0ZE        -0.3669
     25 CB         13.3210  -10.7920   20.4900 C.3       1 0ZE        -0.0214
     26 CG         13.0360  -11.7540   21.6670 C.3       1 0ZE        -0.0174
     27 CD         12.0530  -11.2570   22.6120 C.3       1 0ZE         0.0626
     28 NE         11.6180  -12.3610   23.4780 N.pl3     1 0ZE        -0.2723
     29 CZ         10.6290  -12.1130   24.3290 C.cat     1 0ZE         0.2882
     30 NH1        10.4870  -10.8120   24.6690 N.pl3     1 0ZE        -0.2849
     31 NH2         9.8180  -13.0660   24.7960 N.pl3     1 0ZE        -0.2849
     32 C1         15.6140  -11.2400   17.2720 C.2       1 0ZE         0.1288
     33 N1         16.8080  -10.9240   17.1060 N.2       1 0ZE        -0.3058
     34 C2         17.4220  -11.6190   16.0750 C.ar      1 0ZE         0.0222
     35 C3         18.7580  -11.4790   15.6340 C.ar      1 0ZE        -0.0588
     36 C4         19.2140  -12.2400   14.5300 C.ar      1 0ZE        -0.0730
     37 C5         18.3480  -13.1380   13.8870 C.ar      1 0ZE        -0.0722
     38 C6         17.0050  -13.2580   14.3220 C.ar      1 0ZE        -0.0503
     39 C7         16.5980  -12.4800   15.4120 C.ar      1 0ZE         0.0528
     40 S1         15.0320  -12.4580   16.0840 S.3       1 0ZE         0.0108
     41 H1         17.8649  -11.9183   21.4973 H         1 0ZE         0.0804
     42 H2         19.7775  -12.1060   20.1699 H         1 0ZE         0.0313
     43 H3         18.6207  -12.3911   18.8256 H         1 0ZE         0.0313
     44 H4         20.4749  -14.2945   19.3397 H         1 0ZE         0.0290
     45 H5         18.7809  -14.8213   19.0575 H         1 0ZE         0.0290
     46 H6         20.1695  -14.2634   21.7559 H         1 0ZE         0.0562
     47 H7         20.4392  -16.5275   21.4227 H         1 0ZE         0.0288
     48 H8         18.8518  -16.7083   20.6017 H         1 0ZE         0.0288
     49 H9         19.5150  -16.5389   23.5247 H         1 0ZE         0.0313
     50 H10        18.4903  -17.7161   22.6353 H         1 0ZE         0.0313
     51 H11        16.6116  -15.2952   24.9185 H         1 0ZE         0.1999
     52 H12        18.2563  -15.3112   24.9822 H         1 0ZE         0.1999
     53 H13        17.4167  -16.7260   25.0368 H         1 0ZE         0.1999
     54 H14        16.1655  -16.6486   21.6134 H         1 0ZE         0.0472
     55 H15        15.3436  -16.2750   23.1663 H         1 0ZE         0.0472
     56 H16        17.8704  -18.6199   21.6261 H         1 0ZE         0.0557
     57 H17        18.2134  -20.9565   22.4251 H         1 0ZE         0.0599
     58 H18        16.9605  -21.7845   24.3946 H         1 0ZE         0.0559
     59 H19        15.3169  -20.3063   25.5463 H         1 0ZE         0.0599
     60 H20        14.9749  -17.9832   24.7282 H         1 0ZE         0.0557
     61 H21        16.0100  -10.8377   20.7957 H         1 0ZE         0.1858
     62 H22        13.9793  -12.5954   19.3722 H         1 0ZE         0.0617
     63 H23        15.0911   -9.8688   18.7419 H         1 0ZE         0.0901
     64 H24        13.1570   -9.6149   18.4237 H         1 0ZE         0.2148
     65 H25        12.4001  -10.5757   19.9286 H         1 0ZE         0.0292
     66 H26        13.7602   -9.8503   20.8509 H         1 0ZE         0.0292
     67 H27        13.9782  -11.9277   22.2075 H         1 0ZE         0.0300
     68 H28        12.6690  -12.7055   21.2548 H         1 0ZE         0.0300
     69 H29        11.1874  -10.8544   22.0656 H         1 0ZE         0.0689
     70 H30        12.5013  -10.4619   23.2259 H         1 0ZE         0.0689
     71 H31        12.0617  -13.2891   23.4273 H         1 0ZE         0.2642
     72 H32         9.7446  -10.5291   25.3245 H         1 0ZE         0.2615
     73 H33        11.1213  -10.1039   24.2725 H         1 0ZE         0.2615
     74 H34         9.9590  -14.0463   24.5132 H         1 0ZE         0.2615
     75 H35         9.0516  -12.8206   25.4389 H         1 0ZE         0.2615
     76 H36        19.4294  -10.7932   16.1379 H         1 0ZE         0.0558
     77 H37        20.2342  -12.1286   14.1809 H         1 0ZE         0.0552
     78 H38        18.7061  -13.7388   13.0589 H         1 0ZE         0.0552
     79 H39        16.3146  -13.9309   13.8264 H         1 0ZE         0.0565
@<TRIPOS>BOND
     1    1    2 2  
     2    1    3 1  
     3    1   21 am 
     4    3    4 1  
     5    3   12 1  
     6    4    5 1  
     7    5    6 1  
     8    6    7 1  
     9    6   12 1  
    10    7    8 1  
    11    8    9 1  
    12    9   10 1  
    13    9   13 1  
    14    9   14 1  
    15   10   11 2  
    16   10   12 am 
    17   14   15 1  
    18   15   16 ar 
    19   15   20 ar 
    20   16   17 ar 
    21   17   18 ar 
    22   18   19 ar 
    23   19   20 ar 
    24   21   22 1  
    25   22   23 1  
    26   22   25 1  
    27   23   24 1  
    28   23   32 1  
    29   25   26 1  
    30   26   27 1  
    31   27   28 1  
    32   28   29 ar 
    33   29   30 ar 
    34   29   31 ar 
    35   32   33 2  
    36   32   40 1  
    37   33   34 1  
    38   34   35 ar 
    39   34   39 ar 
    40   35   36 ar 
    41   36   37 ar 
    42   37   38 ar 
    43   38   39 ar 
    44   39   40 1  
    45    3   41 1  
    46    4   42 1  
    47    4   43 1  
    48    5   44 1  
    49    5   45 1  
    50    6   46 1  
    51    7   47 1  
    52    7   48 1  
    53    8   49 1  
    54    8   50 1  
    55   13   51 1  
    56   13   52 1  
    57   13   53 1  
    58   14   54 1  
    59   14   55 1  
    60   16   56 1  
    61   17   57 1  
    62   18   58 1  
    63   19   59 1  
    64   20   60 1  
    65   21   61 1  
    66   22   62 1  
    67   23   63 1  
    68   24   64 1  
    69   25   65 1  
    70   25   66 1  
    71   26   67 1  
    72   26   68 1  
    73   27   69 1  
    74   27   70 1  
    75   28   71 1  
    76   30   72 1  
    77   30   73 1  
    78   31   74 1  
    79   31   75 1  
    80   35   76 1  
    81   36   77 1  
    82   37   78 1  
    83   38   79 1  
@<TRIPOS>SUBSTRUCTURE
     1 0ZE         1

