### 
### Created by X-TOOL on Mon Sep 10 21:12:46 2018
### 

@<TRIPOS>MOLECULE
1b5h_ligand
   60    59     1     0     0
SMALL
GAST_HUCK


@<TRIPOS>ATOM
      1 N           6.8510   16.4590   15.1270 N.4       1 LYS         0.2379
      2 CA          6.3990   17.7750   14.5860 C.3       1 LYS         0.0650
      3 C           5.1800   18.3030   15.3350 C.2       1 LYS         0.2268
      4 O           4.3960   17.5280   15.8720 O.2       1 LYS        -0.3907
      5 CB          6.1500   17.7010   13.0690 C.3       1 LYS         0.0080
      6 CG          5.1600   16.6480   12.6150 C.3       1 LYS        -0.0410
      7 CD          5.0520   16.5520   11.0840 C.3       1 LYS        -0.0123
      8 CE          6.3270   15.9790   10.4570 C.3       1 LYS        -0.0354
      9 NZ          6.5300   14.5420   10.8510 N.4       1 LYS         0.2185
     10 N           5.0290   19.6060   15.4070 N.am      1 DPP        -0.2565
     11 CA          3.9730   20.2810   16.1400 C.3       1 DPP         0.1708
     12 C           2.6380   20.2790   15.4270 C.2       1 DPP         0.2087
     13 O           2.6220   20.5680   14.2230 O.2       1 DPP        -0.3942
     14 CB          4.3340   21.7650   16.3790 C.3       1 DPP         0.0057
     15 NG          5.2700   21.7450   17.5120 N.4       1 DPP         0.2219
     16 N           1.5580   19.9130   16.1280 N.am      1 LYS        -0.2693
     17 CA          0.2770   19.8620   15.4450 C.3       1 LYS         0.0944
     18 C          -0.8060   20.6720   16.1850 C.2       1 LYS         0.0601
     19 O          -1.7740   21.0270   15.4930 O.co2     1 LYS        -0.5666
     20 CB         -0.2610   18.4320   15.2570 C.3       1 LYS        -0.0177
     21 CG         -1.3260   18.4390   14.1370 C.3       1 LYS        -0.0446
     22 CD         -1.8600   17.1080   13.7590 C.3       1 LYS        -0.0125
     23 CE         -2.9320   17.0490   12.6730 C.3       1 LYS        -0.0354
     24 NZ         -3.6490   18.3570   12.6010 N.4       1 LYS         0.2185
     25 OXT        -0.6430   20.9740   17.3660 O.co2     1 LYS        -0.5666
     26 H1          7.6558   16.1416   14.6097 H         1 LYS         0.2015
     27 H2          6.1067   15.7852   15.0371 H         1 LYS         0.2015
     28 H3          7.0957   16.5616   16.0994 H         1 LYS         0.2015
     29 H4          7.2164   18.4931   14.7480 H         1 LYS         0.1098
     30 H5          7.1124   17.4934   12.5785 H         1 LYS         0.0346
     31 H6          5.7748   18.6813   12.7401 H         1 LYS         0.0346
     32 H7          4.1693   16.8983   13.0221 H         1 LYS         0.0270
     33 H8          5.4813   15.6715   13.0065 H         1 LYS         0.0270
     34 H9          4.8761   17.5582   10.6759 H         1 LYS         0.0317
     35 H10         4.2049   15.8990   10.8273 H         1 LYS         0.0317
     36 H11         7.1905   16.5694   10.7972 H         1 LYS         0.0813
     37 H12         6.2478   16.0427    9.3617 H         1 LYS         0.0813
     38 H13         7.3741   14.1928   10.4248 H         1 LYS         0.1994
     39 H14         5.7441   13.9936   10.5384 H         1 LYS         0.1994
     40 H15         6.6079   14.4763   11.8538 H         1 LYS         0.1994
     41 H16         5.6912   20.1758   14.9203 H         1 DPP         0.1886
     42 H17         3.8569   19.7734   17.1089 H         1 DPP         0.0855
     43 H18         3.4349   22.3472   16.6292 H         1 DPP         0.0863
     44 H19         4.8135   22.1957   15.4877 H         1 DPP         0.0863
     45 H20         5.5540   22.6873   17.7299 H         1 DPP         0.1996
     46 H21         6.0806   21.1976   17.2685 H         1 DPP         0.1996
     47 H22         4.8173   21.3365   18.3146 H         1 DPP         0.1996
     48 H23         1.6312   19.6805   17.0978 H         1 LYS         0.1875
     49 H24         0.4217   20.3059   14.4490 H         1 LYS         0.0726
     50 H25        -0.7153   18.0823   16.1958 H         1 LYS         0.0305
     51 H26         0.5645   17.7611   14.9769 H         1 LYS         0.0305
     52 H27        -0.8738   18.8901   13.2414 H         1 LYS         0.0269
     53 H28        -2.1692   19.0597   14.4743 H         1 LYS         0.0269
     54 H29        -2.2883   16.6573   14.6664 H         1 LYS         0.0317
     55 H30        -1.0105   16.5005   13.4137 H         1 LYS         0.0317
     56 H31        -3.6505   16.2510   12.9116 H         1 LYS         0.0813
     57 H32        -2.4583   16.8380   11.7029 H         1 LYS         0.0813
     58 H33        -4.3554   18.3138   11.8833 H         1 LYS         0.1994
     59 H34        -2.9916   19.0890   12.3817 H         1 LYS         0.1994
     60 H35        -4.0840   18.5511   13.4893 H         1 LYS         0.1994
@<TRIPOS>BOND
     1    3    2 1  
     2    2    5 1  
     3    2    1 1  
     4    5    6 1  
     5    6    7 1  
     6    7    8 1  
     7    8    9 1  
     8    3    4 2  
     9   11   10 1  
    10   11   14 1  
    11   12   11 1  
    12   12   13 2  
    13   14   15 1  
    14   17   18 1  
    15   17   20 1  
    16   16   17 1  
    17   20   21 1  
    18   21   22 1  
    19   22   23 1  
    20   23   24 1  
    21   18   25 ar 
    22   18   19 ar 
    23   10    3 am 
    24   12   16 am 
    25    1   26 1  
    26    1   27 1  
    27    1   28 1  
    28    2   29 1  
    29    5   30 1  
    30    5   31 1  
    31    6   32 1  
    32    6   33 1  
    33    7   34 1  
    34    7   35 1  
    35    8   36 1  
    36    8   37 1  
    37    9   38 1  
    38    9   39 1  
    39    9   40 1  
    40   10   41 1  
    41   11   42 1  
    42   14   43 1  
    43   14   44 1  
    44   15   45 1  
    45   15   46 1  
    46   15   47 1  
    47   16   48 1  
    48   17   49 1  
    49   20   50 1  
    50   20   51 1  
    51   21   52 1  
    52   21   53 1  
    53   22   54 1  
    54   22   55 1  
    55   23   56 1  
    56   23   57 1  
    57   24   58 1  
    58   24   59 1  
    59   24   60 1  
@<TRIPOS>SUBSTRUCTURE
     1 LYS         1

