### 
### Created by X-TOOL on Mon Sep 10 21:12:47 2018
### 

@<TRIPOS>MOLECULE
1b5i_ligand
   61    60     1     0     0
SMALL
GAST_HUCK


@<TRIPOS>ATOM
      1 N           6.8880   16.5850   15.2370 N.4       1 LYS         0.2379
      2 CA          6.4120   17.8710   14.6290 C.3       1 LYS         0.0650
      3 C           5.2240   18.4200   15.4180 C.2       1 LYS         0.2268
      4 O           4.4480   17.6480   15.9690 O.2       1 LYS        -0.3907
      5 CB          6.0570   17.8000   13.1500 C.3       1 LYS         0.0080
      6 CG          5.1710   16.6660   12.6790 C.3       1 LYS        -0.0410
      7 CD          5.1470   16.5360   11.1470 C.3       1 LYS        -0.0123
      8 CE          6.4820   16.0900   10.5660 C.3       1 LYS        -0.0354
      9 NZ          6.8160   14.6790   10.9490 N.4       1 LYS         0.2185
     10 N           5.1150   19.7310   15.5020 N.am      1 ASN        -0.2589
     11 CA          3.9960   20.3660   16.2000 C.3       1 ASN         0.1477
     12 C           2.7140   20.3480   15.3810 C.2       1 ASN         0.2057
     13 O           2.6990   20.6480   14.1900 O.2       1 ASN        -0.3942
     14 CB          4.3040   21.8440   16.5010 C.3       1 ASN         0.0773
     15 CG          4.9860   21.8890   17.8790 C.2       1 ASN         0.1780
     16 OD1         4.4780   21.2970   18.8270 O.2       1 ASN        -0.3970
     17 ND2         6.1080   22.5410   18.0450 N.am      1 ASN        -0.3007
     18 N           1.5940   19.9770   16.0020 N.am      1 LYS        -0.2694
     19 CA          0.3310   19.9140   15.3150 C.3       1 LYS         0.0944
     20 C          -0.7100   20.7810   16.0510 C.2       1 LYS         0.0601
     21 O          -1.7460   21.1160   15.4950 O.co2     1 LYS        -0.5666
     22 CB         -0.2470   18.4830   15.2680 C.3       1 LYS        -0.0177
     23 CG         -1.3900   18.4580   14.2440 C.3       1 LYS        -0.0446
     24 CD         -1.6500   17.0610   13.7100 C.3       1 LYS        -0.0125
     25 CE         -2.5540   17.1150   12.4690 C.3       1 LYS        -0.0354
     26 NZ         -3.9330   17.4300   12.9680 N.4       1 LYS         0.2185
     27 OXT        -0.5210   21.1280   17.2120 O.co2     1 LYS        -0.5666
     28 H1          7.6709   16.2330   14.7085 H         1 LYS         0.2015
     29 H2          6.1406   15.9088   15.2209 H         1 LYS         0.2015
     30 H3          7.1724   16.7489   16.1900 H         1 LYS         0.2015
     31 H4          7.2392   18.5900   14.7229 H         1 LYS         0.1098
     32 H5          7.0018   17.7290   12.5911 H         1 LYS         0.0346
     33 H6          5.5478   18.7402   12.8916 H         1 LYS         0.0346
     34 H7          4.1459   16.8483   13.0338 H         1 LYS         0.0270
     35 H8          5.5453   15.7244   13.1072 H         1 LYS         0.0270
     36 H9          4.8868   17.5142   10.7164 H         1 LYS         0.0317
     37 H10         4.3802   15.7976   10.8700 H         1 LYS         0.0317
     38 H11         7.2730   16.7566   10.9401 H         1 LYS         0.0813
     39 H12         6.4331   16.1585    9.4692 H         1 LYS         0.0813
     40 H13         7.7038   14.4227   10.5462 H         1 LYS         0.1994
     41 H14         6.0996   14.0589   10.6051 H         1 LYS         0.1994
     42 H15         6.8692   14.6070   11.9530 H         1 LYS         0.1994
     43 H16         5.8145   20.3063   15.0781 H         1 ASN         0.1886
     44 H17         3.8280   19.8273   17.1442 H         1 ASN         0.0826
     45 H18         3.3719   22.4277   16.5215 H         1 ASN         0.0551
     46 H19         4.9765   22.2539   15.7330 H         1 ASN         0.0551
     47 H20         6.5441   22.5647   18.9446 H         1 ASN         0.1814
     48 H21         6.5295   23.0157   17.2723 H         1 ASN         0.1814
     49 H22         1.6326   19.7359   16.9717 H         1 LYS         0.1875
     50 H23         0.4692   20.2853   14.2888 H         1 LYS         0.0726
     51 H24        -0.6307   18.2041   16.2604 H         1 LYS         0.0305
     52 H25         0.5383   17.7744   14.9661 H         1 LYS         0.0305
     53 H26        -1.1264   19.1156   13.4025 H         1 LYS         0.0269
     54 H27        -2.3062   18.8291   14.7264 H         1 LYS         0.0269
     55 H28        -2.1426   16.4619   14.4900 H         1 LYS         0.0317
     56 H29        -0.6918   16.5936   13.4389 H         1 LYS         0.0317
     57 H30        -2.5486   16.1446   11.9510 H         1 LYS         0.0813
     58 H31        -2.2093   17.9003   11.7802 H         1 LYS         0.0813
     59 H32        -4.5699   17.4772   12.1881 H         1 LYS         0.1994
     60 H33        -3.9225   18.3167   13.4473 H         1 LYS         0.1994
     61 H34        -4.2334   16.7078   13.6038 H         1 LYS         0.1994
@<TRIPOS>BOND
     1    2    1 1  
     2    2    5 1  
     3    3    2 1  
     4    3    4 2  
     5    5    6 1  
     6    6    7 1  
     7    7    8 1  
     8    8    9 1  
     9   11   10 1  
    10   11   14 1  
    11   12   11 1  
    12   12   13 2  
    13   14   15 1  
    14   15   17 am 
    15   15   16 2  
    16   10    3 am 
    17   18   19 1  
    18   19   22 1  
    19   19   20 1  
    20   20   21 ar 
    21   20   27 ar 
    22   22   23 1  
    23   23   24 1  
    24   24   25 1  
    25   25   26 1  
    26   12   18 am 
    27    1   28 1  
    28    1   29 1  
    29    1   30 1  
    30    2   31 1  
    31    5   32 1  
    32    5   33 1  
    33    6   34 1  
    34    6   35 1  
    35    7   36 1  
    36    7   37 1  
    37    8   38 1  
    38    8   39 1  
    39    9   40 1  
    40    9   41 1  
    41    9   42 1  
    42   10   43 1  
    43   11   44 1  
    44   14   45 1  
    45   14   46 1  
    46   17   47 1  
    47   17   48 1  
    48   18   49 1  
    49   19   50 1  
    50   22   51 1  
    51   22   52 1  
    52   23   53 1  
    53   23   54 1  
    54   24   55 1  
    55   24   56 1  
    56   25   57 1  
    57   25   58 1  
    58   26   59 1  
    59   26   60 1  
    60   26   61 1  
@<TRIPOS>SUBSTRUCTURE
     1 LYS         1

