### 
### Created by X-TOOL on Mon Sep 10 21:12:47 2018
### 

@<TRIPOS>MOLECULE
1b5j_ligand
   64    63     1     0     0
SMALL
GAST_HUCK


@<TRIPOS>ATOM
      1 N           6.9140   16.4940   15.1200 N.4       1 LYS         0.2379
      2 CA          6.4250   17.7690   14.5330 C.3       1 LYS         0.0650
      3 C           5.1810   18.2630   15.2420 C.2       1 LYS         0.2267
      4 O           4.4250   17.4650   15.8020 O.2       1 LYS        -0.3907
      5 CB          6.2210   17.6860   13.0080 C.3       1 LYS         0.0080
      6 CG          5.2760   16.5630   12.5730 C.3       1 LYS        -0.0410
      7 CD          5.1850   16.4610   11.0510 C.3       1 LYS        -0.0123
      8 CE          6.4310   15.8590   10.4010 C.3       1 LYS        -0.0354
      9 NZ          6.6880   14.4600   10.8540 N.4       1 LYS         0.2185
     10 N           5.0240   19.5860   15.2760 N.am      1 GLN        -0.2609
     11 CA          3.8710   20.2000   15.9420 C.3       1 GLN         0.1331
     12 C           2.5810   20.0540   15.1670 C.2       1 GLN         0.2035
     13 O           2.4670   20.2870   13.9640 O.2       1 GLN        -0.3944
     14 CB          4.1160   21.7310   16.0430 C.3       1 GLN         0.0045
     15 CG          5.3340   22.0100   16.9260 C.3       1 GLN         0.0412
     16 CD          5.3010   21.7160   18.3800 C.2       1 GLN         0.1737
     17 OE1         4.3940   21.1620   18.9820 O.2       1 GLN        -0.3973
     18 NE2         6.3900   22.0720   19.0740 N.am      1 GLN        -0.3009
     19 N           1.5280   19.6590   15.9010 N.am      1 LYS        -0.2695
     20 CA          0.2110   19.4900   15.3510 C.3       1 LYS         0.0944
     21 C          -0.8060   20.3950   16.0690 C.2       1 LYS         0.0601
     22 O          -1.8000   20.6880   15.3750 O.co2     1 LYS        -0.5666
     23 CB         -0.1970   18.0150   15.5780 C.3       1 LYS        -0.0177
     24 CG         -1.6010   17.7200   15.1130 C.3       1 LYS        -0.0446
     25 CD         -1.6070   17.3160   13.6490 C.3       1 LYS        -0.0125
     26 CE         -3.0610   16.9250   13.2890 C.3       1 LYS        -0.0354
     27 NZ         -3.1060   16.9290   11.7960 N.4       1 LYS         0.2185
     28 OXT        -0.6160   20.7860   17.2430 O.co2     1 LYS        -0.5666
     29 H1          7.7403   16.1926   14.6277 H         1 LYS         0.2015
     30 H2          6.1979   15.7895   15.0372 H         1 LYS         0.2015
     31 H3          7.1355   16.6353   16.0931 H         1 LYS         0.2015
     32 H4          7.2110   18.5190   14.7054 H         1 LYS         0.1098
     33 H5          7.2000   17.5183   12.5354 H         1 LYS         0.0346
     34 H6          5.8053   18.6434   12.6607 H         1 LYS         0.0346
     35 H7          4.2731   16.7638   12.9777 H         1 LYS         0.0270
     36 H8          5.6484   15.6083   12.9729 H         1 LYS         0.0270
     37 H9          5.0342   17.4715   10.6434 H         1 LYS         0.0317
     38 H10         4.3208   15.8300   10.7960 H         1 LYS         0.0317
     39 H11         7.3007   16.4802   10.6613 H         1 LYS         0.0813
     40 H12         6.2948   15.8577    9.3095 H         1 LYS         0.0813
     41 H13         7.5160   14.1068   10.4005 H         1 LYS         0.1994
     42 H14         5.8999   13.8791   10.6143 H         1 LYS         0.1994
     43 H15         6.8217   14.4495   11.8530 H         1 LYS         0.1994
     44 H16         5.7063   20.1717   14.8385 H         1 GLN         0.1885
     45 H17         3.7554   19.7572   16.9423 H         1 GLN         0.0801
     46 H18         3.2301   22.2133   16.4818 H         1 GLN         0.0337
     47 H19         4.2948   22.1383   15.0369 H         1 GLN         0.0337
     48 H20         5.5535   23.0834   16.8278 H         1 GLN         0.0504
     49 H21         6.1662   21.4256   16.5065 H         1 GLN         0.0504
     50 H22         6.4331   21.9023   20.0586 H         1 GLN         0.1814
     51 H23         7.1599   22.5075   18.6075 H         1 GLN         0.1814
     52 H24         1.6665   19.4742   16.8740 H         1 LYS         0.1875
     53 H25         0.2209   19.7242   14.2763 H         1 LYS         0.0726
     54 H26        -0.1287   17.7927   16.6531 H         1 LYS         0.0305
     55 H27         0.4998   17.3682   15.0248 H         1 LYS         0.0305
     56 H28        -2.2208   18.6196   15.2420 H         1 LYS         0.0269
     57 H29        -2.0162   16.8990   15.7159 H         1 LYS         0.0269
     58 H30        -0.9361   16.4586   13.4917 H         1 LYS         0.0317
     59 H31        -1.2775   18.1590   13.0239 H         1 LYS         0.0317
     60 H32        -3.7710   17.6584   13.6988 H         1 LYS         0.0813
     61 H33        -3.3002   15.9250   13.6799 H         1 LYS         0.0813
     62 H34        -4.0328   16.6806   11.4871 H         1 LYS         0.1994
     63 H35        -2.4421   16.2603   11.4380 H         1 LYS         0.1994
     64 H36        -2.8735   17.8487   11.4553 H         1 LYS         0.1994
@<TRIPOS>BOND
     1    2    1 1  
     2    2    5 1  
     3    3    2 1  
     4    3    4 2  
     5    5    6 1  
     6    6    7 1  
     7    7    8 1  
     8    8    9 1  
     9   11   10 1  
    10   11   14 1  
    11   12   11 1  
    12   12   13 2  
    13   14   15 1  
    14   15   16 1  
    15   16   18 am 
    16   16   17 2  
    17   10    3 am 
    18   19   20 1  
    19   20   23 1  
    20   20   21 1  
    21   21   22 ar 
    22   21   28 ar 
    23   23   24 1  
    24   24   25 1  
    25   25   26 1  
    26   26   27 1  
    27   12   19 am 
    28    1   29 1  
    29    1   30 1  
    30    1   31 1  
    31    2   32 1  
    32    5   33 1  
    33    5   34 1  
    34    6   35 1  
    35    6   36 1  
    36    7   37 1  
    37    7   38 1  
    38    8   39 1  
    39    8   40 1  
    40    9   41 1  
    41    9   42 1  
    42    9   43 1  
    43   10   44 1  
    44   11   45 1  
    45   14   46 1  
    46   14   47 1  
    47   15   48 1  
    48   15   49 1  
    49   18   50 1  
    50   18   51 1  
    51   19   52 1  
    52   20   53 1  
    53   23   54 1  
    54   23   55 1  
    55   24   56 1  
    56   24   57 1  
    57   25   58 1  
    58   25   59 1  
    59   26   60 1  
    60   26   61 1  
    61   27   62 1  
    62   27   63 1  
    63   27   64 1  
@<TRIPOS>SUBSTRUCTURE
     1 LYS         1

