### 
### Created by X-TOOL on Mon Sep 10 21:12:46 2018
### 

@<TRIPOS>MOLECULE
1b6h_ligand
   63    62     1     0     0
SMALL
GAST_HUCK


@<TRIPOS>ATOM
      1 N           6.9380   16.5310   15.1250 N.4       1 LYS         0.2379
      2 CA          6.4620   17.8240   14.5740 C.3       1 LYS         0.0650
      3 C           5.2090   18.3150   15.3120 C.2       1 LYS         0.2267
      4 O           4.4430   17.5090   15.8290 O.2       1 LYS        -0.3907
      5 CB          6.1930   17.7870   13.0570 C.3       1 LYS         0.0080
      6 CG          5.2520   16.6620   12.6330 C.3       1 LYS        -0.0410
      7 CD          5.2210   16.5570   11.0870 C.3       1 LYS        -0.0123
      8 CE          6.5020   15.8980   10.5730 C.3       1 LYS        -0.0354
      9 NZ          6.5780   14.4400   10.8960 N.4       1 LYS         0.2185
     10 N           5.0520   19.6220   15.3700 N.am      1 NVA        -0.2610
     11 CA          3.9570   20.2560   16.0860 C.3       1 NVA         0.1310
     12 CB          4.3130   21.7180   16.4190 C.3       1 NVA        -0.0126
     13 CG          5.3540   21.6450   17.5830 C.3       1 NVA        -0.0517
     14 CD          5.5270   22.9880   18.2430 C.3       1 NVA        -0.0651
     15 C           2.6490   20.2390   15.3140 C.2       1 NVA         0.2033
     16 O           2.6210   20.5390   14.1260 O.2       1 NVA        -0.3944
     17 N           1.5780   19.8850   16.0210 N.am      1 LYS        -0.2695
     18 CA          0.2710   19.8990   15.3840 C.3       1 LYS         0.0944
     19 C          -0.7230   20.7610   16.1800 C.2       1 LYS         0.0601
     20 O          -1.7540   21.0940   15.5420 O.co2     1 LYS        -0.5666
     21 CB         -0.3290   18.5040   15.2150 C.3       1 LYS        -0.0177
     22 CG         -1.3930   18.5240   14.1090 C.3       1 LYS        -0.0446
     23 CD         -2.1320   17.2180   13.9920 C.3       1 LYS        -0.0125
     24 CE         -2.9400   17.0800   12.7120 C.3       1 LYS        -0.0354
     25 NZ         -3.6970   18.3410   12.4480 N.4       1 LYS         0.2185
     26 OXT        -0.4410   21.1260   17.3310 O.co2     1 LYS        -0.5666
     27 H1          7.7597   16.2338   14.6225 H         1 LYS         0.2015
     28 H2          6.2141   15.8366   15.0259 H         1 LYS         0.2015
     29 H3          7.1637   16.6443   16.1008 H         1 LYS         0.2015
     30 H4          7.2615   18.5597   14.7456 H         1 LYS         0.1098
     31 H5          7.1526   17.6531   12.5363 H         1 LYS         0.0346
     32 H6          5.7450   18.7465   12.7592 H         1 LYS         0.0346
     33 H7          4.2387   16.8740   13.0048 H         1 LYS         0.0270
     34 H8          5.6064   15.7106   13.0564 H         1 LYS         0.0270
     35 H9          5.1341   17.5656   10.6566 H         1 LYS         0.0317
     36 H10         4.3544   15.9522   10.7818 H         1 LYS         0.0317
     37 H11         7.3648   16.4040   11.0308 H         1 LYS         0.0813
     38 H12         6.5440   16.0178    9.4804 H         1 LYS         0.0813
     39 H13         7.4390   14.0603   10.5348 H         1 LYS         0.1994
     40 H14         5.7971   13.9614   10.4751 H         1 LYS         0.1994
     41 H15         6.5492   14.3154   11.8958 H         1 LYS         0.1994
     42 H16         5.7159   20.2040   14.9004 H         1 NVA         0.1884
     43 H17         3.8067   19.7061   17.0267 H         1 NVA         0.0800
     44 H18         3.4160   22.2675   16.7406 H         1 NVA         0.0312
     45 H19         4.7528   22.2151   15.5418 H         1 NVA         0.0312
     46 H20         6.3226   21.3166   17.1782 H         1 NVA         0.0265
     47 H21         5.0045   20.9193   18.3321 H         1 NVA         0.0265
     48 H22         6.2636   22.9049   19.0558 H         1 NVA         0.0230
     49 H23         4.5629   23.3212   18.6546 H         1 NVA         0.0230
     50 H24         5.8810   23.7185   17.5007 H         1 NVA         0.0230
     51 H25         1.6712   19.6127   16.9787 H         1 LYS         0.1875
     52 H26         0.3939   20.3413   14.3844 H         1 LYS         0.0726
     53 H27        -0.7926   18.1891   16.1615 H         1 LYS         0.0305
     54 H28         0.4668   17.7951   14.9428 H         1 LYS         0.0305
     55 H29        -0.8994   18.7364   13.1492 H         1 LYS         0.0269
     56 H30        -2.1183   19.3202   14.3325 H         1 LYS         0.0269
     57 H31        -2.8193   17.1312   14.8464 H         1 LYS         0.0317
     58 H32        -1.3974   16.4000   14.0277 H         1 LYS         0.0317
     59 H33        -3.6483   16.2449   12.8164 H         1 LYS         0.0813
     60 H34        -2.2594   16.8807   11.8711 H         1 LYS         0.0813
     61 H35        -4.2298   18.2413   11.5981 H         1 LYS         0.1994
     62 H36        -3.0496   19.1075   12.3507 H         1 LYS         0.1994
     63 H37        -4.3223   18.5248   13.2169 H         1 LYS         0.1994
@<TRIPOS>BOND
     1    3    2 1  
     2    2    5 1  
     3    2    1 1  
     4    5    6 1  
     5    6    7 1  
     6    7    8 1  
     7    8    9 1  
     8    3    4 2  
     9   11   10 1  
    10   15   11 1  
    11   11   12 1  
    12   12   13 1  
    13   13   14 1  
    14   15   16 2  
    15   18   19 1  
    16   18   21 1  
    17   17   18 1  
    18   21   22 1  
    19   22   23 1  
    20   23   24 1  
    21   24   25 1  
    22   19   26 ar 
    23   19   20 ar 
    24   10    3 am 
    25   15   17 am 
    26    1   27 1  
    27    1   28 1  
    28    1   29 1  
    29    2   30 1  
    30    5   31 1  
    31    5   32 1  
    32    6   33 1  
    33    6   34 1  
    34    7   35 1  
    35    7   36 1  
    36    8   37 1  
    37    8   38 1  
    38    9   39 1  
    39    9   40 1  
    40    9   41 1  
    41   10   42 1  
    42   11   43 1  
    43   12   44 1  
    44   12   45 1  
    45   13   46 1  
    46   13   47 1  
    47   14   48 1  
    48   14   49 1  
    49   14   50 1  
    50   17   51 1  
    51   18   52 1  
    52   21   53 1  
    53   21   54 1  
    54   22   55 1  
    55   22   56 1  
    56   23   57 1  
    57   23   58 1  
    58   24   59 1  
    59   24   60 1  
    60   25   61 1  
    61   25   62 1  
    62   25   63 1  
@<TRIPOS>SUBSTRUCTURE
     1 LYS         1

