### 
### Created by X-TOOL on Mon Sep 10 21:12:47 2018
### 

@<TRIPOS>MOLECULE
1b6j_ligand
  103   105     1     0     0
SMALL
GAST_HUCK


@<TRIPOS>ATOM
      1 C1          6.0980    4.6800    9.6030 C.3       1 RTY        -0.0084
      2 C2          4.1570    3.4300   10.5900 C.2       1 RTY         0.1784
      3 O3          3.7960    4.3130   11.3740 O.2       1 RTY        -0.3969
      4 C4          4.8970    3.7810    9.3140 C.3       1 RTY         0.0398
      5 N5          3.9350    2.1390   10.8180 N.am      1 ASN        -0.2635
      6 C6          3.2650    1.6680   12.0450 C.3       1 ASN         0.1474
      7 C7          4.0410    0.4620   12.5560 C.2       1 ASN         0.2045
      8 O8          3.9570   -0.6280   11.9920 O.2       1 ASN        -0.3943
      9 C9          1.8040    1.3250   11.7710 C.3       1 ASN         0.0773
     10 C10         1.0450    2.5070   11.2100 C.2       1 ASN         0.1780
     11 O11         0.6600    3.4160   11.9450 O.2       1 ASN        -0.3970
     12 N12         0.8940    2.5410    9.8930 N.am      1 ASN        -0.3007
     13 N13         4.8490    0.6910   13.5920 N.am      1 RTY        -0.2774
     14 C14         5.6860   -0.3610   14.1980 C.3       1 RTY         0.0809
     15 C15         7.1130    0.1920   14.3260 C.3       1 RTY         0.0015
     16 C16         7.4940    0.8960   13.0550 C.ar      1 RTY        -0.0515
     17 C17         7.4990    2.2910   12.9850 C.ar      1 RTY        -0.0687
     18 C18         7.6070    2.9550   11.7550 C.ar      1 RTY        -0.0396
     19 C19         7.6300    0.1790   11.8640 C.ar      1 RTY        -0.0687
     20 C20         7.7340    0.8310   10.6380 C.ar      1 RTY        -0.0396
     21 C21         7.7080    2.2200   10.5750 C.ar      1 RTY         0.0840
     22 O22         7.6860    2.7860    9.2980 O.3       1 RTY        -0.3223
     23 C23         7.4460    4.1620    9.0120 C.3       1 RTY         0.0710
     24 C24         5.1540   -0.6860   15.5970 C.3       1 RTY         0.1192
     25 O25         5.2480    0.4690   16.4450 O.3       1 RTY        -0.3841
     26 C26         3.6990   -1.0900   15.4870 C.3       1 RTY        -0.0008
     27 N27         3.5160   -2.5440   15.4480 N.4       1 PRO         0.2560
     28 C28         4.2080   -3.3990   16.4120 C.3       1 PRO         0.0689
     29 C29         5.5010   -4.0600   15.9380 C.2       1 PRO         0.2269
     30 O30         5.8130   -4.1120   14.7460 O.2       1 PRO        -0.3907
     31 C31         3.1600   -4.4580   16.7160 C.3       1 PRO         0.0128
     32 C32         2.5420   -4.6660   15.3720 C.3       1 PRO        -0.0052
     33 C33         2.3670   -3.2470   14.8510 C.3       1 PRO        -0.0294
     34 N34         6.2670   -4.5230   16.9150 N.am      1 ILE        -0.2608
     35 C35         7.5050   -5.2630   16.6770 C.3       1 ILE         0.1336
     36 C36         7.3570   -6.4010   17.6690 C.2       1 ILE         0.2042
     37 O37         7.3650   -6.1760   18.8800 O.2       1 ILE        -0.3944
     38 C38         8.7830   -4.4560   17.0160 C.3       1 ILE        -0.0037
     39 C39         8.9550   -3.2820   16.0500 C.3       1 ILE        -0.0491
     40 C40        10.0080   -5.3640   16.9340 C.3       1 ILE        -0.0582
     41 C41         9.1600   -3.6980   14.6320 C.3       1 ILE        -0.0648
     42 N42         7.0850   -7.5930   17.1520 N.am      1 VAL        -0.2635
     43 C43         6.9200   -8.7790   18.0020 C.3       1 VAL         0.1329
     44 C44         8.0430   -9.7860   17.7430 C.2       1 VAL         0.1994
     45 O45         8.3940  -10.0630   16.5900 O.2       1 VAL        -0.3947
     46 C46         5.5280   -9.4500   17.7970 C.3       1 VAL        -0.0063
     47 C47         4.4170   -8.4300   18.0070 C.3       1 VAL        -0.0584
     48 C48         5.4180  -10.0870   16.4130 C.3       1 VAL        -0.0584
     49 N49         8.6300  -10.3170   18.8160 N.am      1 NH2        -0.2990
     50 H1          5.8946    5.6737    9.1773 H         1 RTY         0.0315
     51 H2          6.2102    4.7645   10.6940 H         1 RTY         0.0315
     52 H3          5.2486    2.8546    8.8365 H         1 RTY         0.0503
     53 H4          4.2105    4.3065    8.6338 H         1 RTY         0.0503
     54 H5          4.2307    1.4680   10.1381 H         1 ASN         0.1884
     55 H6          3.2979    2.4638   12.8037 H         1 ASN         0.0826
     56 H7          1.3293    1.0115   12.7124 H         1 ASN         0.0551
     57 H8          1.7622    0.4986   11.0462 H         1 ASN         0.0551
     58 H9          0.4007    3.2987    9.4657 H         1 ASN         0.1814
     59 H10         1.2734    1.8090    9.3272 H         1 ASN         0.1814
     60 H11         4.8889    1.6144   13.9737 H         1 RTY         0.1857
     61 H12         5.6790   -1.2646   13.5707 H         1 RTY         0.0604
     62 H13         7.8123   -0.6370   14.5095 H         1 RTY         0.0428
     63 H14         7.1572    0.9016   15.1654 H         1 RTY         0.0428
     64 H15         7.4180    2.8703   13.8976 H         1 RTY         0.0530
     65 H16         7.6120    4.0385   11.7217 H         1 RTY         0.0525
     66 H17         7.6550   -0.9043   11.8947 H         1 RTY         0.0530
     67 H18         7.8359    0.2523    9.7271 H         1 RTY         0.0525
     68 H19         8.2674    4.7571    9.4376 H         1 RTY         0.0612
     69 H20         7.4244    4.2947    7.9203 H         1 RTY         0.0612
     70 H21         5.7389   -1.5105   16.0308 H         1 RTY         0.0672
     71 H22         6.1579    0.7314   16.5211 H         1 RTY         0.2101
     72 H23         3.2828   -0.6583   14.5648 H         1 RTY         0.0841
     73 H24         3.1563   -0.6904   16.3564 H         1 RTY         0.0841
     74 H25         4.1464   -2.6840   14.6741 H         1 PRO         0.2056
     75 H26         4.4411   -2.8141   17.3139 H         1 PRO         0.1100
     76 H27         2.4213   -4.0936   17.4450 H         1 PRO         0.0347
     77 H28         3.6216   -5.3827   17.0926 H         1 PRO         0.0347
     78 H29         1.5721   -5.1777   15.4580 H         1 PRO         0.0320
     79 H30         3.2070   -5.2481   14.7171 H         1 PRO         0.0320
     80 H31         2.4109   -3.2188   13.7522 H         1 PRO         0.0815
     81 H32         1.4151   -2.8133   15.1912 H         1 PRO         0.0815
     82 H33         5.9848   -4.3584   17.8601 H         1 ILE         0.1885
     83 H34         7.5600   -5.6228   15.6390 H         1 ILE         0.0803
     84 H35         8.6938   -4.0645   18.0401 H         1 ILE         0.0345
     85 H36         9.8284   -2.6944   16.3693 H         1 ILE         0.0267
     86 H37         8.0526   -2.6550   16.1011 H         1 ILE         0.0267
     87 H38         9.8855   -6.2085   17.6281 H         1 ILE         0.0235
     88 H39        10.9072   -4.7923   17.2072 H         1 ILE         0.0235
     89 H40        10.1137   -5.7454   15.9077 H         1 ILE         0.0235
     90 H41         9.2752   -2.8045   14.0008 H         1 ILE         0.0230
     91 H42         8.2901   -4.2783   14.2907 H         1 ILE         0.0230
     92 H43        10.0658   -4.3178   14.5590 H         1 ILE         0.0230
     93 H44         6.9903   -7.6854   16.1608 H         1 VAL         0.1883
     94 H45         6.9869   -8.4542   19.0508 H         1 VAL         0.0802
     95 H46         5.4152  -10.2445   18.5494 H         1 VAL         0.0343
     96 H47         3.4410   -8.9154   17.8597 H         1 VAL         0.0234
     97 H48         4.5312   -7.6093   17.2836 H         1 VAL         0.0234
     98 H49         4.4762   -8.0286   19.0294 H         1 VAL         0.0234
     99 H50         6.2280  -10.8195   16.2811 H         1 VAL         0.0234
    100 H51         5.5006   -9.3064   15.6424 H         1 VAL         0.0234
    101 H52         4.4463  -10.5939   16.3188 H         1 VAL         0.0234
    102 H53         9.3697  -10.9806   18.7043 H         1 NH2         0.1815
    103 H54         8.3305  -10.0517   19.7325 H         1 NH2         0.1815
@<TRIPOS>BOND
     1    1   23 1  
     2    1    4 1  
     3    4    2 1  
     4    2    5 am 
     5    2    3 2  
     6    5    6 1  
     7    6    9 1  
     8    6    7 1  
     9    7   13 am 
    10    7    8 2  
    11   13   14 1  
    12   14   24 1  
    13   14   15 1  
    14   15   16 1  
    15   16   19 ar 
    16   16   17 ar 
    17   17   18 ar 
    18   18   21 ar 
    19   21   22 1  
    20   21   20 ar 
    21   19   20 ar 
    22   23   22 1  
    23   24   26 1  
    24   24   25 1  
    25   26   27 1  
    26   27   33 1  
    27   27   28 1  
    28   28   31 1  
    29   28   29 1  
    30   29   34 am 
    31   29   30 2  
    32   34   35 1  
    33   35   38 1  
    34   35   36 1  
    35   36   42 am 
    36   36   37 2  
    37   42   43 1  
    38   43   46 1  
    39   43   44 1  
    40   44   49 am 
    41   44   45 2  
    42   46   48 1  
    43   46   47 1  
    44   38   40 1  
    45   38   39 1  
    46   39   41 1  
    47   31   32 1  
    48   33   32 1  
    49    9   10 1  
    50   10   12 am 
    51   10   11 2  
    52    1   50 1  
    53    1   51 1  
    54    4   52 1  
    55    4   53 1  
    56    5   54 1  
    57    6   55 1  
    58    9   56 1  
    59    9   57 1  
    60   12   58 1  
    61   12   59 1  
    62   13   60 1  
    63   14   61 1  
    64   15   62 1  
    65   15   63 1  
    66   17   64 1  
    67   18   65 1  
    68   19   66 1  
    69   20   67 1  
    70   23   68 1  
    71   23   69 1  
    72   24   70 1  
    73   25   71 1  
    74   26   72 1  
    75   26   73 1  
    76   27   74 1  
    77   28   75 1  
    78   31   76 1  
    79   31   77 1  
    80   32   78 1  
    81   32   79 1  
    82   33   80 1  
    83   33   81 1  
    84   34   82 1  
    85   35   83 1  
    86   38   84 1  
    87   39   85 1  
    88   39   86 1  
    89   40   87 1  
    90   40   88 1  
    91   40   89 1  
    92   41   90 1  
    93   41   91 1  
    94   41   92 1  
    95   42   93 1  
    96   43   94 1  
    97   46   95 1  
    98   47   96 1  
    99   47   97 1  
   100   47   98 1  
   101   48   99 1  
   102   48  100 1  
   103   48  101 1  
   104   49  102 1  
   105   49  103 1  
@<TRIPOS>SUBSTRUCTURE
     1 RTY         1

