### 
### Created by X-TOOL on Mon Sep 10 21:12:47 2018
### 

@<TRIPOS>MOLECULE
1b6k_ligand
  103   106     1     0     0
SMALL
GAST_HUCK


@<TRIPOS>ATOM
      1 C1          3.9510    3.5910    8.4490 C.3       1 PI5        -0.0154
      2 C2          3.3590    2.3660    9.1930 C.3       1 PI5         0.0387
      3 C3          3.5310    4.1510   10.6590 C.2       1 PI5         0.1808
      4 O4          3.5450    4.7720   11.7270 O.2       1 PI5        -0.3967
      5 C5          3.8500    4.8040    9.3470 C.3       1 PI5         0.0394
      6 N6          3.2290    2.8450   10.5950 N.am      1 PI5        -0.2513
      7 C7          2.9040    2.0930   11.8060 C.3       1 PI5         0.1358
      8 C8          1.6140    1.2640   11.5730 C.3       1 PI5        -0.0061
      9 C9          1.2720    0.4580   12.8120 C.3       1 PI5        -0.0584
     10 C10         0.4560    2.1860   11.2480 C.3       1 PI5        -0.0584
     11 C11         4.1080    1.2140   12.1230 C.2       1 PI5         0.2026
     12 O12         4.2510    0.1030   11.5900 O.2       1 PI5        -0.3945
     13 N13         4.9930    1.7390   12.9650 N.am      1 PI5        -0.2775
     14 C14         6.2090    1.0250   13.3620 C.3       1 PI5         0.0809
     15 C15         7.4370    1.8970   13.1060 C.3       1 PI5         0.0015
     16 C16         7.5970    2.2990   11.6700 C.ar      1 PI5        -0.0515
     17 C17         7.8070    1.3430   10.6840 C.ar      1 PI5        -0.0687
     18 C18         7.5140    3.6360   11.2900 C.ar      1 PI5        -0.0687
     19 C19         7.9270    1.7030    9.3540 C.ar      1 PI5        -0.0398
     20 C20         7.6330    4.0090    9.9640 C.ar      1 PI5        -0.0398
     21 C21         7.8380    3.0360    9.0010 C.ar      1 PI5         0.0805
     22 C22         6.1730    0.6200   14.8240 C.3       1 PI5         0.1191
     23 C23         4.9850   -0.2890   15.1060 C.3       1 PI5        -0.0025
     24 O24         7.3840   -0.0730   15.1370 O.3       1 PI5        -0.3841
     25 O25         7.9460    3.3900    7.6750 O.3       1 PI5        -0.3376
     26 N26         5.0220   -0.6580   16.5240 N.4       1 PI5         0.2493
     27 C27         4.8090   -2.1090   16.8080 C.3       1 PI5         0.0748
     28 C28         3.4070   -2.5610   16.3990 C.3       1 PI5         0.0366
     29 C29         3.2560   -4.0520   16.5240 C.ar      1 PI5        -0.0460
     30 C30         3.2090   -4.6630   17.7790 C.ar      1 PI5        -0.0684
     31 C31         3.2090   -6.0390   17.9030 C.ar      1 PI5        -0.0396
     32 C32         3.2850   -4.8640   15.3950 C.ar      1 PI5        -0.0684
     33 C33         3.2870   -6.2380   15.5090 C.ar      1 PI5        -0.0396
     34 C34         3.2550   -6.8200   16.7620 C.ar      1 PI5         0.0840
     35 O35         3.2990   -8.1900   16.8510 O.3       1 PI5        -0.3224
     36 C36         3.8180   -8.8460   17.9920 C.3       1 PI5         0.0707
     37 C37         5.8340   -3.1040   16.2610 C.2       1 PI5         0.2286
     38 O38         6.0910   -3.1640   15.0560 O.2       1 PI5        -0.3905
     39 N39         6.3990   -3.8970   17.1670 N.am      1 PI5        -0.2606
     40 C40         7.3890   -4.9310   16.8300 C.3       1 PI5         0.1335
     41 C41         7.0690   -6.0100   17.8670 C.2       1 PI5         0.2019
     42 O42         7.2130   -5.7790   19.0760 O.2       1 PI5        -0.3945
     43 C43         8.8560   -4.4570   17.0510 C.3       1 PI5        -0.0037
     44 C44         9.2160   -3.3310   16.0840 C.3       1 PI5        -0.0491
     45 C45         9.8250   -5.6170   16.8520 C.3       1 PI5        -0.0582
     46 C46         9.5520   -3.7930   14.6950 C.3       1 PI5        -0.0648
     47 N47         6.5900   -7.1610   17.4020 N.am      1 PI5        -0.2850
     48 C48         6.2670   -8.2470   18.3150 C.3       1 PI5         0.0334
     49 C49         5.2680   -9.2710   17.7810 C.3       1 PI5        -0.0051
     50 H1          5.0061    3.3997    8.2037 H         1 PI5         0.0309
     51 H2          3.3855    3.7691    7.5224 H         1 PI5         0.0309
     52 H3          4.0384    1.5029    9.1332 H         1 PI5         0.0525
     53 H4          2.3781    2.0900    8.7787 H         1 PI5         0.0525
     54 H5          3.0453    5.4812    9.0249 H         1 PI5         0.0503
     55 H6          4.7998    5.3572    9.3897 H         1 PI5         0.0503
     56 H7          2.7320    2.7876   12.6414 H         1 PI5         0.0804
     57 H8          1.7780    0.5772   10.7296 H         1 PI5         0.0343
     58 H9          0.3560   -0.1232   12.6300 H         1 PI5         0.0234
     59 H10         1.1112    1.1398   13.6601 H         1 PI5         0.0234
     60 H11         2.1008   -0.2270   13.0442 H         1 PI5         0.0234
     61 H12         0.6965    2.7742   10.3502 H         1 PI5         0.0234
     62 H13         0.2793    2.8653   12.0949 H         1 PI5         0.0234
     63 H14        -0.4483    1.5877   11.0629 H         1 PI5         0.0234
     64 H15         4.8231    2.6506   13.3393 H         1 PI5         0.1857
     65 H16         6.2890    0.1138   12.7511 H         1 PI5         0.0604
     66 H17         8.3323    1.3360   13.4122 H         1 PI5         0.0428
     67 H18         7.3495    2.8088   13.7150 H         1 PI5         0.0428
     68 H19         7.8780    0.2976   10.9617 H         1 PI5         0.0530
     69 H20         7.3536    4.3964   12.0457 H         1 PI5         0.0530
     70 H21         8.0894    0.9461    8.5952 H         1 PI5         0.0525
     71 H22         7.5664    5.0533    9.6812 H         1 PI5         0.0525
     72 H23         6.0928    1.5220   15.4484 H         1 PI5         0.0672
     73 H24         5.0512   -1.1934   14.4834 H         1 PI5         0.0841
     74 H25         4.0478    0.2419   14.8831 H         1 PI5         0.0841
     75 H26         7.4561   -0.8457   14.5890 H         1 PI5         0.2101
     76 H27         7.2554    2.9672    7.1783 H         1 PI5         0.2458
     77 H28         4.3022   -0.1378   17.0008 H         1 PI5         0.2038
     78 H29         5.9239   -0.3974   16.8909 H         1 PI5         0.2038
     79 H30         4.8660   -2.1982   17.9029 H         1 PI5         0.1121
     80 H31         3.2269   -2.2689   15.3539 H         1 PI5         0.0486
     81 H32         2.6681   -2.0702   17.0495 H         1 PI5         0.0486
     82 H33         3.1719   -4.0474   18.6705 H         1 PI5         0.0530
     83 H34         3.1734   -6.5013   18.8828 H         1 PI5         0.0525
     84 H35         3.3063   -4.4098   14.4110 H         1 PI5         0.0530
     85 H36         3.3135   -6.8584   14.6205 H         1 PI5         0.0525
     86 H37         3.2101   -9.7393   18.1982 H         1 PI5         0.0611
     87 H38         3.7676   -8.1616   18.8517 H         1 PI5         0.0611
     88 H39         6.1375   -3.7845   18.1256 H         1 PI5         0.1885
     89 H40         7.2594   -5.2903   15.7985 H         1 PI5         0.0803
     90 H41         8.9525   -4.0843   18.0814 H         1 PI5         0.0345
     91 H42        10.0869   -2.7946   16.4887 H         1 PI5         0.0267
     92 H43         8.3592   -2.6441   16.0207 H         1 PI5         0.0267
     93 H44         9.5699   -6.4310   17.5465 H         1 PI5         0.0235
     94 H45        10.8517   -5.2751   17.0492 H         1 PI5         0.0235
     95 H46         9.7525   -5.9819   15.8169 H         1 PI5         0.0235
     96 H47         9.7975   -2.9228   14.0685 H         1 PI5         0.0230
     97 H48         8.6885   -4.3220   14.2656 H         1 PI5         0.0230
     98 H49        10.4162   -4.4725   14.7335 H         1 PI5         0.0230
     99 H50         6.4511   -7.2804   16.4189 H         1 PI5         0.1851
    100 H51         7.2002   -8.7765   18.5573 H         1 PI5         0.0521
    101 H52         5.8464   -7.8072   19.2313 H         1 PI5         0.0521
    102 H53         5.4424   -9.4034   16.7030 H         1 PI5         0.0310
    103 H54         5.4333  -10.2270   18.2994 H         1 PI5         0.0310
@<TRIPOS>BOND
     1    5    1 1  
     2    1    2 1  
     3    2    6 1  
     4    6    7 1  
     5    6    3 am 
     6    3    5 1  
     7    3    4 2  
     8    7   11 1  
     9    7    8 1  
    10    8   10 1  
    11    8    9 1  
    12   11   13 am 
    13   11   12 2  
    14   13   14 1  
    15   14   22 1  
    16   14   15 1  
    17   15   16 1  
    18   16   18 ar 
    19   16   17 ar 
    20   17   19 ar 
    21   19   21 ar 
    22   21   25 1  
    23   21   20 ar 
    24   18   20 ar 
    25   22   24 1  
    26   22   23 1  
    27   23   26 1  
    28   26   27 1  
    29   27   37 1  
    30   27   28 1  
    31   28   29 1  
    32   29   32 ar 
    33   29   30 ar 
    34   30   31 ar 
    35   31   34 ar 
    36   34   35 1  
    37   34   33 ar 
    38   33   32 ar 
    39   35   36 1  
    40   36   49 1  
    41   49   48 1  
    42   48   47 1  
    43   47   41 am 
    44   41   42 2  
    45   41   40 1  
    46   40   43 1  
    47   40   39 1  
    48   39   37 am 
    49   37   38 2  
    50   43   45 1  
    51   43   44 1  
    52   44   46 1  
    53    1   50 1  
    54    1   51 1  
    55    2   52 1  
    56    2   53 1  
    57    5   54 1  
    58    5   55 1  
    59    7   56 1  
    60    8   57 1  
    61    9   58 1  
    62    9   59 1  
    63    9   60 1  
    64   10   61 1  
    65   10   62 1  
    66   10   63 1  
    67   13   64 1  
    68   14   65 1  
    69   15   66 1  
    70   15   67 1  
    71   17   68 1  
    72   18   69 1  
    73   19   70 1  
    74   20   71 1  
    75   22   72 1  
    76   23   73 1  
    77   23   74 1  
    78   24   75 1  
    79   25   76 1  
    80   26   77 1  
    81   26   78 1  
    82   27   79 1  
    83   28   80 1  
    84   28   81 1  
    85   30   82 1  
    86   31   83 1  
    87   32   84 1  
    88   33   85 1  
    89   36   86 1  
    90   36   87 1  
    91   39   88 1  
    92   40   89 1  
    93   43   90 1  
    94   44   91 1  
    95   44   92 1  
    96   45   93 1  
    97   45   94 1  
    98   45   95 1  
    99   46   96 1  
   100   46   97 1  
   101   46   98 1  
   102   47   99 1  
   103   48  100 1  
   104   48  101 1  
   105   49  102 1  
   106   49  103 1  
@<TRIPOS>SUBSTRUCTURE
     1 PI5         1

