### 
### Created by X-TOOL on Mon Sep 10 21:12:47 2018
### 

@<TRIPOS>MOLECULE
1b6m_ligand
   92    94     1     0     0
SMALL
GAST_HUCK


@<TRIPOS>ATOM
      1 O1          2.8080    1.9690   12.1240 O.3       1 PI6        -0.2581
      2 O2          3.8350   -0.0320   12.0460 O.2       1 PI6        -0.3775
      3 C3          1.0770    0.3200   12.6340 C.3       1 PI6        -0.0320
      4 C4          0.5560    2.4860   11.5390 C.3       1 PI6        -0.0320
      5 C5          1.8090    0.7650   10.2580 C.3       1 PI6        -0.0320
      6 C6          1.5870    1.3710   11.6460 C.3       1 PI6         0.0905
      7 C7          3.8210    1.1580   12.3990 C.2       1 PI6         0.3205
      8 N8          4.8280    1.7130   13.0680 N.am      1 PI6        -0.2548
      9 C9          6.0330    0.9660   13.4470 C.3       1 PI6         0.0842
     10 C10         7.2750    1.8050   13.1830 C.3       1 PI6         0.0065
     11 C11         7.4750    2.1320   11.7460 C.ar      1 PI6        -0.0408
     12 C12         7.8650    1.1460   10.8500 C.ar      1 PI6        -0.0603
     13 C13         7.2350    3.4170   11.2760 C.ar      1 PI6        -0.0603
     14 C14         8.0170    1.4350    9.5080 C.ar      1 PI6        -0.0686
     15 C15         7.3850    3.7170    9.9340 C.ar      1 PI6        -0.0686
     16 C16         7.7720    2.7230    9.0460 C.ar      1 PI6        -0.0687
     17 C17         6.0080    0.5390   14.9040 C.3       1 PI6         0.1193
     18 O18         7.2050   -0.1890   15.1920 O.3       1 PI6        -0.3841
     19 C19         4.8040   -0.3490   15.1870 C.3       1 PI6        -0.0025
     20 N20         4.8920   -0.7540   16.6000 N.4       1 PI6         0.2493
     21 C21         4.6730   -2.2010   16.8610 C.3       1 PI6         0.0748
     22 C22         3.2670   -2.6540   16.4460 C.3       1 PI6         0.0366
     23 C23         3.1210   -4.1510   16.5700 C.ar      1 PI6        -0.0460
     24 C24         3.0910   -4.7670   17.8230 C.ar      1 PI6        -0.0684
     25 C25         3.1310   -6.1480   17.9420 C.ar      1 PI6        -0.0396
     26 C26         3.1690   -4.9630   15.4390 C.ar      1 PI6        -0.0684
     27 C27         3.2090   -6.3390   15.5470 C.ar      1 PI6        -0.0396
     28 C28         3.1980   -6.9280   16.7950 C.ar      1 PI6         0.0840
     29 O29         3.3050   -8.2960   16.8630 O.3       1 PI6        -0.3224
     30 C30         3.7900   -8.9410   18.0290 C.3       1 PI6         0.0707
     31 C31         5.6890   -3.1860   16.2910 C.2       1 PI6         0.2286
     32 O32         5.9960   -3.1750   15.0970 O.2       1 PI6        -0.3905
     33 N33         6.1870   -4.0500   17.1690 N.am      1 PI6        -0.2606
     34 C34         7.1520   -5.1000   16.8150 C.3       1 PI6         0.1335
     35 C35         6.9120   -6.1780   17.8650 C.2       1 PI6         0.2019
     36 O36         7.0470   -5.9220   19.0640 O.2       1 PI6        -0.3945
     37 C37         8.6280   -4.6370   16.8950 C.3       1 PI6        -0.0037
     38 C38         8.8980   -3.5650   15.8390 C.3       1 PI6        -0.0491
     39 C39         9.5670   -5.8310   16.6960 C.3       1 PI6        -0.0582
     40 C40        10.3440   -3.3980   15.4840 C.3       1 PI6        -0.0648
     41 N41         6.5080   -7.3620   17.4150 N.am      1 PI6        -0.2850
     42 C42         6.2540   -8.4570   18.3350 C.3       1 PI6         0.0334
     43 C43         5.2130   -9.4540   17.8450 C.3       1 PI6        -0.0051
     44 H1          0.1461   -0.1228   12.2502 H         1 PI6         0.0260
     45 H2          0.8831    0.7950   13.6070 H         1 PI6         0.0260
     46 H3          1.8351   -0.4678   12.7551 H         1 PI6         0.0260
     47 H4         -0.3960    2.0715   11.1758 H         1 PI6         0.0260
     48 H5          0.9151    3.2511   10.8350 H         1 PI6         0.0260
     49 H6          0.4039    2.9410   12.5289 H         1 PI6         0.0260
     50 H7          0.8723    0.3114    9.9019 H         1 PI6         0.0260
     51 H8          2.5912   -0.0063   10.3154 H         1 PI6         0.0260
     52 H9          2.1229    1.5544    9.5592 H         1 PI6         0.0260
     53 H10         4.7612    2.6777   13.3228 H         1 PI6         0.1873
     54 H11         6.0829    0.0604   12.8246 H         1 PI6         0.0606
     55 H12         8.1540    1.2476   13.5389 H         1 PI6         0.0449
     56 H13         7.1854    2.7463   13.7451 H         1 PI6         0.0449
     57 H14         8.0520    0.1397   11.2070 H         1 PI6         0.0557
     58 H15         6.9270    4.1925   11.9679 H         1 PI6         0.0557
     59 H16         8.3265    0.6595    8.8168 H         1 PI6         0.0599
     60 H17         7.2011    4.7240    9.5774 H         1 PI6         0.0599
     61 H18         7.8832    2.9511    7.9921 H         1 PI6         0.0559
     62 H19         5.9567    1.4327   15.5433 H         1 PI6         0.0672
     63 H20         7.2053   -0.4467   16.1064 H         1 PI6         0.2101
     64 H21         4.8277   -1.2363   14.5373 H         1 PI6         0.0841
     65 H22         3.8728    0.2094   15.0112 H         1 PI6         0.0841
     66 H23         4.1983   -0.2360   17.1162 H         1 PI6         0.2038
     67 H24         5.8110   -0.5125   16.9365 H         1 PI6         0.2038
     68 H25         4.7339   -2.3078   17.9541 H         1 PI6         0.1121
     69 H26         3.0887   -2.3608   15.4009 H         1 PI6         0.0486
     70 H27         2.5256   -2.1656   17.0954 H         1 PI6         0.0486
     71 H28         3.0356   -4.1559   18.7166 H         1 PI6         0.0530
     72 H29         3.1102   -6.6140   18.9205 H         1 PI6         0.0525
     73 H30         3.1751   -4.5061   14.4560 H         1 PI6         0.0530
     74 H31         3.2489   -6.9540   14.6552 H         1 PI6         0.0525
     75 H32         3.1332   -9.7914   18.2642 H         1 PI6         0.0611
     76 H33         3.7755   -8.2247   18.8637 H         1 PI6         0.0611
     77 H34         5.8893   -3.9821   18.1212 H         1 PI6         0.1885
     78 H35         6.9468   -5.4789   15.8029 H         1 PI6         0.0803
     79 H36         8.8108   -4.2063   17.8905 H         1 PI6         0.0345
     80 H37         8.5241   -2.6036   16.2209 H         1 PI6         0.0267
     81 H38         8.3483   -3.8355   14.9254 H         1 PI6         0.0267
     82 H39         9.3599   -6.5921   17.4628 H         1 PI6         0.0235
     83 H40        10.6108   -5.4955   16.7850 H         1 PI6         0.0235
     84 H41         9.4045   -6.2629   15.6975 H         1 PI6         0.0235
     85 H42        10.4460   -2.6112   14.7220 H         1 PI6         0.0230
     86 H43        10.7359   -4.3460   15.0869 H         1 PI6         0.0230
     87 H44        10.9117   -3.1141   16.3824 H         1 PI6         0.0230
     88 H45         6.3777   -7.5001   16.4332 H         1 PI6         0.1851
     89 H46         7.1985   -8.9965   18.4984 H         1 PI6         0.0521
     90 H47         5.9042   -8.0331   19.2878 H         1 PI6         0.0521
     91 H48         5.3840   -9.6472   16.7757 H         1 PI6         0.0310
     92 H49         5.3272  -10.3910   18.4098 H         1 PI6         0.0310
@<TRIPOS>BOND
     1    7    1 1  
     2    1    6 1  
     3    6    3 1  
     4    6    4 1  
     5    6    5 1  
     6    7    2 2  
     7    7    8 am 
     8    8    9 1  
     9    9   17 1  
    10    9   10 1  
    11   10   11 1  
    12   11   13 ar 
    13   11   12 ar 
    14   12   14 ar 
    15   14   16 ar 
    16   16   15 ar 
    17   13   15 ar 
    18   17   19 1  
    19   17   18 1  
    20   19   20 1  
    21   20   21 1  
    22   21   31 1  
    23   21   22 1  
    24   22   23 1  
    25   23   26 ar 
    26   23   24 ar 
    27   24   25 ar 
    28   25   28 ar 
    29   28   29 1  
    30   28   27 ar 
    31   27   26 ar 
    32   29   30 1  
    33   30   43 1  
    34   43   42 1  
    35   42   41 1  
    36   41   35 am 
    37   35   36 2  
    38   35   34 1  
    39   34   37 1  
    40   34   33 1  
    41   33   31 am 
    42   31   32 2  
    43   37   39 1  
    44   37   38 1  
    45   38   40 1  
    46    3   44 1  
    47    3   45 1  
    48    3   46 1  
    49    4   47 1  
    50    4   48 1  
    51    4   49 1  
    52    5   50 1  
    53    5   51 1  
    54    5   52 1  
    55    8   53 1  
    56    9   54 1  
    57   10   55 1  
    58   10   56 1  
    59   12   57 1  
    60   13   58 1  
    61   14   59 1  
    62   15   60 1  
    63   16   61 1  
    64   17   62 1  
    65   18   63 1  
    66   19   64 1  
    67   19   65 1  
    68   20   66 1  
    69   20   67 1  
    70   21   68 1  
    71   22   69 1  
    72   22   70 1  
    73   24   71 1  
    74   25   72 1  
    75   26   73 1  
    76   27   74 1  
    77   30   75 1  
    78   30   76 1  
    79   33   77 1  
    80   34   78 1  
    81   37   79 1  
    82   38   80 1  
    83   38   81 1  
    84   39   82 1  
    85   39   83 1  
    86   39   84 1  
    87   40   85 1  
    88   40   86 1  
    89   40   87 1  
    90   41   88 1  
    91   42   89 1  
    92   42   90 1  
    93   43   91 1  
    94   43   92 1  
@<TRIPOS>SUBSTRUCTURE
     1 PI6         1

