### 
### Created by X-TOOL on Mon Sep 10 21:12:47 2018
### 

@<TRIPOS>MOLECULE
1b6p_ligand
  102   104     1     0     0
SMALL
GAST_HUCK


@<TRIPOS>ATOM
      1 C1          4.5630    4.0010    8.3210 C.3       1 PI7        -0.0482
      2 C2          3.4360    4.5310    9.1740 C.3       1 PI7         0.0345
      3 C3          3.4030    3.8420   10.5380 C.2       1 PI7         0.1780
      4 O4          3.7610    4.4410   11.5530 O.2       1 PI7        -0.3969
      5 N5          2.9830    2.5800   10.5530 N.am      1 PI7        -0.2654
      6 C6          2.8660    1.8050   11.8030 C.3       1 PI7         0.1330
      7 C7          4.0830    0.9430   12.1490 C.2       1 PI7         0.2024
      8 O8          4.1980   -0.2060   11.7110 O.2       1 PI7        -0.3945
      9 C9          1.5910    0.9310   11.7770 C.3       1 PI7        -0.0063
     10 C10         1.4310    0.1730   13.0840 C.3       1 PI7        -0.0584
     11 C11         0.3740    1.8040   11.5190 C.3       1 PI7        -0.0584
     12 N12         4.9680    1.4910   12.9750 N.am      1 PI7        -0.2775
     13 C13         6.1810    0.7720   13.3940 C.3       1 PI7         0.0809
     14 C14         7.4100    1.6560   13.1960 C.3       1 PI7         0.0015
     15 C15         7.4890    2.2610   11.8200 C.ar      1 PI7        -0.0515
     16 C16         7.6380    1.4560   10.6930 C.ar      1 PI7        -0.0687
     17 C17         7.3830    3.6370   11.6410 C.ar      1 PI7        -0.0687
     18 C18         7.6770    2.0070    9.4210 C.ar      1 PI7        -0.0398
     19 C19         7.4220    4.1990   10.3730 C.ar      1 PI7        -0.0398
     20 C20         7.5670    3.3770    9.2680 C.ar      1 PI7         0.0805
     21 C21         6.0910    0.3320   14.8580 C.3       1 PI7         0.1191
     22 C22         4.8840   -0.5730   15.0820 C.3       1 PI7        -0.0025
     23 O23         7.2830   -0.3770   15.2120 O.3       1 PI7        -0.3841
     24 O24         7.5850    3.9280    8.0080 O.3       1 PI7        -0.3376
     25 N25         4.8820   -0.9670   16.5060 N.4       1 PI7         0.2493
     26 C26         4.6710   -2.4110   16.8090 C.3       1 PI7         0.0748
     27 C27         3.2320   -2.8410   16.5010 C.3       1 PI7         0.0366
     28 C28         3.0550   -4.3340   16.6410 C.ar      1 PI7        -0.0460
     29 C29         3.0400   -4.9370   17.8990 C.ar      1 PI7        -0.0684
     30 C30         3.0240   -6.3180   18.0300 C.ar      1 PI7        -0.0396
     31 C31         3.0330   -5.1550   15.5170 C.ar      1 PI7        -0.0684
     32 C32         3.0160   -6.5320   15.6350 C.ar      1 PI7        -0.0396
     33 C33         3.0180   -7.1120   16.8880 C.ar      1 PI7         0.0840
     34 O34         3.0420   -8.4890   16.9630 O.3       1 PI7        -0.3224
     35 C35         3.7280   -8.9520   18.1170 C.3       1 PI7         0.0707
     36 C36         5.6430   -3.4390   16.2130 C.2       1 PI7         0.2286
     37 O37         5.7940   -3.5610   14.9950 O.2       1 PI7        -0.3905
     38 N38         6.2620   -4.2000   17.1120 N.am      1 PI7        -0.2606
     39 C39         7.1980   -5.2890   16.7830 C.3       1 PI7         0.1335
     40 C40         6.9550   -6.3660   17.8430 C.2       1 PI7         0.2019
     41 O41         7.1020   -6.1210   19.0450 O.2       1 PI7        -0.3945
     42 C42         8.6750   -4.8280   16.8010 C.3       1 PI7        -0.0037
     43 C43         8.9080   -3.7920   15.6980 C.3       1 PI7        -0.0491
     44 C44         9.6070   -6.0200   16.5900 C.3       1 PI7        -0.0582
     45 C45        10.2840   -3.2030   15.6970 C.3       1 PI7        -0.0648
     46 N46         6.5130   -7.5330   17.3840 N.am      1 PI7        -0.2850
     47 C47         6.2380   -8.6400   18.2810 C.3       1 PI7         0.0334
     48 C48         5.1030   -9.5230   17.7730 C.3       1 PI7        -0.0051
     49 H1          4.5599    4.5153    7.3486 H         1 PI7         0.0254
     50 H2          4.4278    2.9206    8.1648 H         1 PI7         0.0254
     51 H3          5.5225    4.1810    8.8279 H         1 PI7         0.0254
     52 H4          2.4810    4.3516    8.6584 H         1 PI7         0.0500
     53 H5          3.5757    5.6121    9.3216 H         1 PI7         0.0500
     54 H6          2.7383    2.1418    9.6880 H         1 PI7         0.1883
     55 H7          2.7536    2.5356   12.6176 H         1 PI7         0.0802
     56 H8          1.6817    0.2013   10.9589 H         1 PI7         0.0343
     57 H9          0.5191   -0.4408   13.0426 H         1 PI7         0.0234
     58 H10         1.3538    0.8886   13.9158 H         1 PI7         0.0234
     59 H11         2.3041   -0.4776   13.2398 H         1 PI7         0.0234
     60 H12         0.5055    2.3452   10.5704 H         1 PI7         0.0234
     61 H13         0.2602    2.5265   12.3406 H         1 PI7         0.0234
     62 H14        -0.5245    1.1722   11.4591 H         1 PI7         0.0234
     63 H15         4.8053    2.4153   13.3204 H         1 PI7         0.1857
     64 H16         6.2868   -0.1252   12.7664 H         1 PI7         0.0604
     65 H17         8.3101    1.0459   13.3619 H         1 PI7         0.0428
     66 H18         7.3777    2.4704   13.9347 H         1 PI7         0.0428
     67 H19         7.7248    0.3821   10.8121 H         1 PI7         0.0530
     68 H20         7.2681    4.2801   12.5061 H         1 PI7         0.0530
     69 H21         7.7929    1.3684    8.5528 H         1 PI7         0.0525
     70 H22         7.3396    5.2727   10.2484 H         1 PI7         0.0525
     71 H23         5.9940    1.2235   15.4950 H         1 PI7         0.0672
     72 H24         4.9614   -1.4666   14.4453 H         1 PI7         0.0841
     73 H25         3.9580   -0.0303   14.8413 H         1 PI7         0.0841
     74 H26         7.2293   -0.6510   16.1201 H         1 PI7         0.2101
     75 H27         7.5003    4.8718    8.0751 H         1 PI7         0.2458
     76 H28         4.1475   -0.4500   16.9634 H         1 PI7         0.2038
     77 H29         5.7728   -0.7016   16.8961 H         1 PI7         0.2038
     78 H30         4.7983   -2.4912   17.8987 H         1 PI7         0.1121
     79 H31         2.9848   -2.5476   15.4701 H         1 PI7         0.0486
     80 H32         2.5507   -2.3339   17.2000 H         1 PI7         0.0486
     81 H33         3.0409   -4.3167   18.7880 H         1 PI7         0.0530
     82 H34         3.0162   -6.7741   19.0134 H         1 PI7         0.0525
     83 H35         3.0291   -4.7058   14.5305 H         1 PI7         0.0530
     84 H36         3.0012   -7.1541   14.7474 H         1 PI7         0.0525
     85 H37         3.1265   -9.7383   18.5965 H         1 PI7         0.0611
     86 H38         3.8567   -8.1117   18.8151 H         1 PI7         0.0611
     87 H39         6.0791   -4.0201   18.0785 H         1 PI7         0.1885
     88 H40         6.9667   -5.6856   15.7834 H         1 PI7         0.0803
     89 H41         8.8946   -4.3704   17.7769 H         1 PI7         0.0345
     90 H42         8.1826   -2.9759   15.8311 H         1 PI7         0.0267
     91 H43         8.7391   -4.2779   14.7257 H         1 PI7         0.0267
     92 H44         9.4377   -6.7627   17.3835 H         1 PI7         0.0235
     93 H45        10.6522   -5.6788   16.6241 H         1 PI7         0.0235
     94 H46         9.4021   -6.4768   15.6105 H         1 PI7         0.0235
     95 H47        10.3694   -2.4723   14.8793 H         1 PI7         0.0230
     96 H48        11.0252   -4.0029   15.5528 H         1 PI7         0.0230
     97 H49        10.4687   -2.7009   16.6581 H         1 PI7         0.0230
     98 H50         6.3673   -7.6501   16.4016 H         1 PI7         0.1851
     99 H51         7.1470   -9.2518   18.3780 H         1 PI7         0.0521
    100 H52         5.9602   -8.2373   19.2662 H         1 PI7         0.0521
    101 H53         5.1860   -9.6122   16.6798 H         1 PI7         0.0310
    102 H54         5.1974  -10.5189   18.2304 H         1 PI7         0.0310
@<TRIPOS>BOND
     1    2    1 1  
     2    2    3 1  
     3    3    5 am 
     4    3    4 2  
     5    5    6 1  
     6    6    9 1  
     7    6    7 1  
     8    7   12 am 
     9    7    8 2  
    10   12   13 1  
    11   13   21 1  
    12   13   14 1  
    13   14   15 1  
    14   15   17 ar 
    15   15   16 ar 
    16   16   18 ar 
    17   18   20 ar 
    18   20   24 1  
    19   20   19 ar 
    20   17   19 ar 
    21   21   23 1  
    22   21   22 1  
    23   22   25 1  
    24   25   26 1  
    25   26   36 1  
    26   26   27 1  
    27   27   28 1  
    28   28   31 ar 
    29   28   29 ar 
    30   29   30 ar 
    31   30   33 ar 
    32   33   34 1  
    33   33   32 ar 
    34   31   32 ar 
    35   34   35 1  
    36   35   48 1  
    37   48   47 1  
    38   47   46 1  
    39   46   40 am 
    40   40   41 2  
    41   40   39 1  
    42   39   42 1  
    43   39   38 1  
    44   36   38 am 
    45   36   37 2  
    46   42   44 1  
    47   42   43 1  
    48   43   45 1  
    49    9   11 1  
    50    9   10 1  
    51    1   49 1  
    52    1   50 1  
    53    1   51 1  
    54    2   52 1  
    55    2   53 1  
    56    5   54 1  
    57    6   55 1  
    58    9   56 1  
    59   10   57 1  
    60   10   58 1  
    61   10   59 1  
    62   11   60 1  
    63   11   61 1  
    64   11   62 1  
    65   12   63 1  
    66   13   64 1  
    67   14   65 1  
    68   14   66 1  
    69   16   67 1  
    70   17   68 1  
    71   18   69 1  
    72   19   70 1  
    73   21   71 1  
    74   22   72 1  
    75   22   73 1  
    76   23   74 1  
    77   24   75 1  
    78   25   76 1  
    79   25   77 1  
    80   26   78 1  
    81   27   79 1  
    82   27   80 1  
    83   29   81 1  
    84   30   82 1  
    85   31   83 1  
    86   32   84 1  
    87   35   85 1  
    88   35   86 1  
    89   38   87 1  
    90   39   88 1  
    91   42   89 1  
    92   43   90 1  
    93   43   91 1  
    94   44   92 1  
    95   44   93 1  
    96   44   94 1  
    97   45   95 1  
    98   45   96 1  
    99   45   97 1  
   100   46   98 1  
   101   47   99 1  
   102   47  100 1  
   103   48  101 1  
   104   48  102 1  
@<TRIPOS>SUBSTRUCTURE
     1 PI7         1

