### 
### Created by X-TOOL on Mon Sep 10 21:12:47 2018
### 

@<TRIPOS>MOLECULE
1b74_ligand
   20    19     1     0     0
SMALL
GAST_HUCK


@<TRIPOS>ATOM
      1 N          22.8340   33.4800   29.8040 N.4       1 DGN         0.2328
      2 CA         22.3240   33.5900   28.5110 C.3       1 DGN         0.0304
      3 C          21.8400   32.2630   28.0660 C.2       1 DGN         0.0846
      4 O          21.3130   32.1230   26.9450 O.co2     1 DGN        -0.5643
      5 OXT        21.9730   31.2790   28.8100 O.co2     1 DGN        -0.5643
      6 CB         21.2510   34.6010   28.5290 C.3       1 DGN         0.0192
      7 CG         21.7630   35.9030   29.1310 C.3       1 DGN         0.0437
      8 CD         20.6480   36.8320   29.1300 C.2       1 DGN         0.1738
      9 OE1        19.4880   36.3960   28.9370 O.2       1 DGN        -0.3973
     10 NE2        21.0120   38.1270   29.3580 N.am      1 DGN        -0.3009
     11 H1         23.1651   34.3808   30.1123 H         1 DGN         0.2010
     12 H2         23.5973   32.8216   29.8093 H         1 DGN         0.2010
     13 H3         22.1083   33.1582   30.4252 H         1 DGN         0.2010
     14 H4         23.1186   33.9240   27.8276 H         1 DGN         0.1026
     15 H5         20.4106   34.2278   29.1326 H         1 DGN         0.0363
     16 H6         20.9095   34.7864   27.4999 H         1 DGN         0.0363
     17 H7         22.5889   36.3020   28.5239 H         1 DGN         0.0505
     18 H8         22.1131   35.7327   30.1598 H         1 DGN         0.0505
     19 H9         20.3170   38.8457   29.3773 H         1 DGN         0.1814
     20 H10        21.9738   38.3574   29.5058 H         1 DGN         0.1814
@<TRIPOS>BOND
     1    1    2 1  
     2    2    3 1  
     3    2    6 1  
     4    3    4 ar 
     5    3    5 ar 
     6    6    7 1  
     7    7    8 1  
     8    8    9 2  
     9    8   10 am 
    10    1   11 1  
    11    1   12 1  
    12    1   13 1  
    13    2   14 1  
    14    6   15 1  
    15    6   16 1  
    16    7   17 1  
    17    7   18 1  
    18   10   19 1  
    19   10   20 1  
@<TRIPOS>SUBSTRUCTURE
     1 DGN         1

