### 
### Created by X-TOOL on Mon Sep 10 21:12:46 2018
### 

@<TRIPOS>MOLECULE
1b7h_ligand
   66    65     1     0     0
SMALL
GAST_HUCK


@<TRIPOS>ATOM
      1 N          42.7730   31.7660   22.9020 N.4       1 LYS         0.2379
      2 CA         42.7770   33.2290   22.5870 C.3       1 LYS         0.0650
      3 C          41.9100   33.9400   23.6270 C.2       1 LYS         0.2267
      4 O          40.9170   33.4330   24.1420 O.2       1 LYS        -0.3907
      5 CB         42.3440   33.6180   21.1640 C.3       1 LYS         0.0080
      6 CG         40.9400   33.0310   20.8140 C.3       1 LYS        -0.0410
      7 CD         40.6820   33.3430   19.2990 C.3       1 LYS        -0.0123
      8 CE         41.2380   32.4520   18.2270 C.3       1 LYS        -0.0354
      9 NZ         40.9720   30.9770   18.4640 N.4       1 LYS         0.2185
     10 N          42.3690   35.1730   23.9330 N.am      1 NLE        -0.2610
     11 CA         41.7540   35.9690   24.9810 C.3       1 NLE         0.1311
     12 C          40.4550   36.6270   24.4590 C.2       1 NLE         0.2033
     13 O          40.4400   37.2050   23.3740 O.2       1 NLE        -0.3944
     14 CB         42.7440   37.0080   25.4310 C.3       1 NLE        -0.0124
     15 CG         43.8880   36.5610   26.3560 C.3       1 NLE        -0.0491
     16 CD         44.5690   37.8580   26.8770 C.3       1 NLE        -0.0557
     17 CE         45.1370   37.7110   28.3010 C.3       1 NLE        -0.0653
     18 N          39.4190   36.5760   25.2760 N.am      1 LYS        -0.2695
     19 CA         38.1820   37.1940   24.8790 C.3       1 LYS         0.0944
     20 C          37.8460   38.2870   25.9130 C.2       1 LYS         0.0601
     21 O          37.0810   39.1960   25.5310 O.co2     1 LYS        -0.5666
     22 CB         37.0060   36.2150   24.8230 C.3       1 LYS        -0.0177
     23 CG         35.8830   36.9050   23.9690 C.3       1 LYS        -0.0446
     24 CD         34.6810   36.0250   23.8880 C.3       1 LYS        -0.0125
     25 CE         33.4990   36.7010   23.1660 C.3       1 LYS        -0.0354
     26 NZ         33.7350   36.5710   21.6860 N.4       1 LYS         0.2185
     27 OXT        38.3900   38.1890   27.0480 O.co2     1 LYS        -0.5666
     28 H1         43.3396   31.2756   22.2278 H         1 LYS         0.2015
     29 H2         41.8282   31.4167   22.8643 H         1 LYS         0.2015
     30 H3         43.1486   31.6202   23.8260 H         1 LYS         0.2015
     31 H4         43.8124   33.5809   22.7061 H         1 LYS         0.1098
     32 H5         43.0826   33.2305   20.4468 H         1 LYS         0.0346
     33 H6         42.3016   34.7147   21.0902 H         1 LYS         0.0346
     34 H7         40.1659   33.5052   21.4352 H         1 LYS         0.0270
     35 H8         40.9312   31.9442   20.9834 H         1 LYS         0.0270
     36 H9         41.0863   34.3488   19.1122 H         1 LYS         0.0317
     37 H10        39.5906   33.3552   19.1623 H         1 LYS         0.0317
     38 H11        42.3261   32.6054   18.1771 H         1 LYS         0.0813
     39 H12        40.7830   32.7374   17.2670 H         1 LYS         0.0813
     40 H13        41.3702   30.4385   17.7107 H         1 LYS         0.1994
     41 H14        39.9776   30.8168   18.5024 H         1 LYS         0.1994
     42 H15        41.3916   30.6958   19.3363 H         1 LYS         0.1994
     43 H16        43.1477   35.5453   23.4280 H         1 NLE         0.1884
     44 H17        41.5034   35.3183   25.8317 H         1 NLE         0.0800
     45 H18        42.1801   37.7891   25.9619 H         1 NLE         0.0312
     46 H19        43.2022   37.4365   24.5275 H         1 NLE         0.0312
     47 H20        44.6121   35.9503   25.7967 H         1 NLE         0.0267
     48 H21        43.4890   35.9769   27.1984 H         1 NLE         0.0267
     49 H22        43.8247   38.6680   26.8787 H         1 NLE         0.0263
     50 H23        45.3930   38.1186   26.1965 H         1 NLE         0.0263
     51 H24        45.6031   38.6584   28.6094 H         1 NLE         0.0230
     52 H25        45.8910   36.9102   28.3142 H         1 NLE         0.0230
     53 H26        44.3227   37.4595   28.9964 H         1 NLE         0.0230
     54 H27        39.4933   36.1136   26.1596 H         1 LYS         0.1875
     55 H28        38.3140   37.6466   23.8852 H         1 LYS         0.0726
     56 H29        36.6366   36.0080   25.8382 H         1 LYS         0.0305
     57 H30        37.3189   35.2737   24.3476 H         1 LYS         0.0305
     58 H31        36.2632   37.0944   22.9543 H         1 LYS         0.0269
     59 H32        35.6034   37.8590   24.4398 H         1 LYS         0.0269
     60 H33        34.3667   35.7630   24.9091 H         1 LYS         0.0317
     61 H34        34.9508   35.1095   23.3411 H         1 LYS         0.0317
     62 H35        33.4470   37.7636   23.4455 H         1 LYS         0.0813
     63 H36        32.5574   36.2031   23.4407 H         1 LYS         0.0813
     64 H37        32.9756   37.0054   21.1853 H         1 LYS         0.1994
     65 H38        33.7861   35.5953   21.4383 H         1 LYS         0.1994
     66 H39        34.6013   37.0253   21.4427 H         1 LYS         0.1994
@<TRIPOS>BOND
     1    3    2 1  
     2    2    5 1  
     3    2    1 1  
     4    5    6 1  
     5    6    7 1  
     6    7    8 1  
     7    8    9 1  
     8    3    4 2  
     9   11   10 1  
    10   11   14 1  
    11   12   11 1  
    12   12   13 2  
    13   14   15 1  
    14   15   16 1  
    15   16   17 1  
    16   19   20 1  
    17   19   22 1  
    18   18   19 1  
    19   22   23 1  
    20   23   24 1  
    21   24   25 1  
    22   25   26 1  
    23   20   27 ar 
    24   20   21 ar 
    25   10    3 am 
    26   12   18 am 
    27    1   28 1  
    28    1   29 1  
    29    1   30 1  
    30    2   31 1  
    31    5   32 1  
    32    5   33 1  
    33    6   34 1  
    34    6   35 1  
    35    7   36 1  
    36    7   37 1  
    37    8   38 1  
    38    8   39 1  
    39    9   40 1  
    40    9   41 1  
    41    9   42 1  
    42   10   43 1  
    43   11   44 1  
    44   14   45 1  
    45   14   46 1  
    46   15   47 1  
    47   15   48 1  
    48   16   49 1  
    49   16   50 1  
    50   17   51 1  
    51   17   52 1  
    52   17   53 1  
    53   18   54 1  
    54   19   55 1  
    55   22   56 1  
    56   22   57 1  
    57   23   58 1  
    58   23   59 1  
    59   24   60 1  
    60   24   61 1  
    61   25   62 1  
    62   25   63 1  
    63   26   64 1  
    64   26   65 1  
    65   26   66 1  
@<TRIPOS>SUBSTRUCTURE
     1 LYS         1

