### 
### Created by X-TOOL on Mon Sep 10 21:12:46 2018
### 

@<TRIPOS>MOLECULE
1b8n_ligand
   36    38     1     0     0
SMALL
GAST_HUCK


@<TRIPOS>ATOM
      1 O5'       -66.6900   90.3810   97.6050 O.3       1 IMG        -0.3894
      2 C5'       -65.3860   90.2550   97.0230 C.3       1 IMG         0.0893
      3 C4'       -65.0230   88.8980   96.3610 C.3       1 IMG         0.0313
      4 N4'       -66.0870   88.7440   95.3660 N.4       1 IMG         0.2433
      5 C3'       -63.7130   88.8060   95.5100 C.3       1 IMG         0.1317
      6 O3'       -63.1890   87.4580   95.3440 O.3       1 IMG        -0.3832
      7 C2'       -64.1210   89.3510   94.0980 C.3       1 IMG         0.1325
      8 O2'       -63.5970   88.5380   93.0400 O.3       1 IMG        -0.3822
      9 C1'       -65.6640   89.2910   94.0800 C.3       1 IMG         0.0233
     10 C9        -66.3690   90.7420   93.8760 C.2       1 IMG        -0.0005
     11 C8        -67.6470   91.0320   94.1550 C.2       1 IMG         0.0195
     12 N7        -67.9010   92.4140   93.8430 N.pl3     1 IMG        -0.2946
     13 C5        -66.6630   92.9030   93.3710 C.2       1 IMG         0.1229
     14 C6        -66.3870   94.2710   92.9020 C.2       1 IMG         0.2353
     15 O6        -67.1280   95.2670   92.8890 O.2       1 IMG        -0.4038
     16 N1        -65.0700   94.3360   92.5080 N.am      1 IMG        -0.1858
     17 N2        -62.9040   93.5180   91.9370 N.pl3     1 IMG        -0.2850
     18 C2        -64.1390   93.3000   92.5200 C.2       1 IMG         0.2207
     19 N3        -64.4690   92.0930   92.9490 N.2       1 IMG        -0.3286
     20 C4        -65.7330   91.9400   93.3610 C.2       1 IMG        -0.0042
     21 H1        -66.7938   89.7313   98.2903 H         1 IMG         0.2097
     22 H2        -64.6505   90.4397   97.8198 H         1 IMG         0.0614
     23 H3        -65.2934   91.0331   96.2510 H         1 IMG         0.0614
     24 H4        -65.0257   88.1014   97.1195 H         1 IMG         0.0900
     25 H5        -66.9097   89.2339   95.6809 H         1 IMG         0.2029
     26 H6        -66.3002   87.7649   95.2565 H         1 IMG         0.2029
     27 H7        -62.9342   89.4366   95.9637 H         1 IMG         0.0680
     28 H8        -62.9897   87.0897   96.1967 H         1 IMG         0.2102
     29 H9        -63.7692   90.3856   93.9720 H         1 IMG         0.0692
     30 H10       -63.9320   87.6532   93.1264 H         1 IMG         0.2103
     31 H11       -65.9860   88.6260   93.2651 H         1 IMG         0.0958
     32 H12       -68.3789   90.3318   94.5551 H         1 IMG         0.0774
     33 H13       -68.7867   92.9304   93.9418 H         1 IMG         0.2247
     34 H14       -64.7465   95.2226   92.1774 H         1 IMG         0.2487
     35 H15       -62.1973   92.7687   91.9322 H         1 IMG         0.1874
     36 H16       -62.6909   94.4297   91.5076 H         1 IMG         0.1874
@<TRIPOS>BOND
     1    1    2 1  
     2    2    3 1  
     3    3    4 1  
     4    3    5 1  
     5    4    9 1  
     6    5    6 1  
     7    5    7 1  
     8    7    8 1  
     9    7    9 1  
    10    9   10 1  
    11   10   11 2  
    12   10   20 1  
    13   11   12 1  
    14   12   13 1  
    15   13   14 1  
    16   13   20 2  
    17   14   15 2  
    18   14   16 am 
    19   16   18 am 
    20   18   19 2  
    21   19   20 1  
    22   18   17 1  
    23    1   21 1  
    24    2   22 1  
    25    2   23 1  
    26    3   24 1  
    27    4   25 1  
    28    4   26 1  
    29    5   27 1  
    30    6   28 1  
    31    7   29 1  
    32    8   30 1  
    33    9   31 1  
    34   11   32 1  
    35   12   33 1  
    36   16   34 1  
    37   17   35 1  
    38   17   36 1  
@<TRIPOS>SUBSTRUCTURE
     1 IMG         1

