### 
### Created by X-TOOL on Mon Sep 10 21:12:47 2018
### 

@<TRIPOS>MOLECULE
1b8o_ligand
   34    36     1     0     0
SMALL
GAST_HUCK


@<TRIPOS>ATOM
      1 O5'        21.7480   90.5640   76.5980 O.3       1 IMH        -0.3894
      2 C5'        21.5380   89.1540   76.4120 C.3       1 IMH         0.0894
      3 C4'        20.2210   88.7130   75.6980 C.3       1 IMH         0.0313
      4 N4'        20.0680   89.7020   74.6260 N.4       1 IMH         0.2435
      5 C3'        20.1890   87.3530   74.9510 C.3       1 IMH         0.1317
      6 O3'        18.8590   86.7640   74.8620 O.3       1 IMH        -0.3832
      7 C2'        20.7010   87.6800   73.4910 C.3       1 IMH         0.1327
      8 O2'        19.8950   87.0710   72.4580 O.3       1 IMH        -0.3821
      9 C1'        20.6180   89.2150   73.3680 C.3       1 IMH         0.0244
     10 C9         22.0500   89.9520   73.1120 C.2       1 IMH         0.0057
     11 C8         22.2840   91.2710   73.2430 C.2       1 IMH         0.0223
     12 N7         23.6620   91.5480   72.9460 N.pl3     1 IMH        -0.2895
     13 C5         24.2050   90.2850   72.6460 C.2       1 IMH         0.1348
     14 C6         25.6000   90.0060   72.2640 C.2       1 IMH         0.2413
     15 O6         26.5520   90.7960   72.2070 O.2       1 IMH        -0.4013
     16 N1         25.7420   88.6250   72.0150 N.am      1 IMH        -0.2067
     17 C2         24.7180   87.6480   72.1050 C.2       1 IMH         0.1146
     18 N3         23.4910   87.9970   72.4590 N.2       1 IMH        -0.3199
     19 C4         23.2780   89.3130   72.7160 C.2       1 IMH         0.0184
     20 H1         21.0427   90.9213   77.1248 H         1 IMH         0.2097
     21 H2         21.5473   88.6847   77.4068 H         1 IMH         0.0614
     22 H3         22.3802   88.7703   75.8176 H         1 IMH         0.0614
     23 H4         19.3912   88.7466   76.4193 H         1 IMH         0.0900
     24 H5         20.5502   90.5473   74.8889 H         1 IMH         0.2029
     25 H6         19.0876   89.8997   74.5001 H         1 IMH         0.2029
     26 H7         20.8625   86.6402   75.4492 H         1 IMH         0.0680
     27 H8         18.5433   86.5642   75.7354 H         1 IMH         0.2102
     28 H9         21.7412   87.3405   73.3778 H         1 IMH         0.0693
     29 H10        18.9921   87.3492   72.5571 H         1 IMH         0.2103
     30 H11        19.9426   89.4684   72.5375 H         1 IMH         0.0961
     31 H12        21.5421   92.0146   73.5303 H         1 IMH         0.0779
     32 H13        24.1413   92.4597   72.9514 H         1 IMH         0.2273
     33 H14        26.6513   88.3043   71.7498 H         1 IMH         0.2519
     34 H15        24.9420   86.6059   71.8819 H         1 IMH         0.1426
@<TRIPOS>BOND
     1    2    1 1  
     2    2    3 1  
     3    3    5 1  
     4    3    4 1  
     5    4    9 1  
     6    9   10 1  
     7    9    7 1  
     8    7    8 1  
     9    7    5 1  
    10    5    6 1  
    11   10   19 1  
    12   10   11 2  
    13   11   12 1  
    14   12   13 1  
    15   13   19 2  
    16   13   14 1  
    17   14   16 am 
    18   14   15 2  
    19   16   17 am 
    20   17   18 2  
    21   18   19 1  
    22    1   20 1  
    23    2   21 1  
    24    2   22 1  
    25    3   23 1  
    26    4   24 1  
    27    4   25 1  
    28    5   26 1  
    29    6   27 1  
    30    7   28 1  
    31    8   29 1  
    32    9   30 1  
    33   11   31 1  
    34   12   32 1  
    35   16   33 1  
    36   17   34 1  
@<TRIPOS>SUBSTRUCTURE
     1 IMH         1

