### 
### Created by X-TOOL on Mon Sep 10 21:12:47 2018
### 

@<TRIPOS>MOLECULE
1b8y_ligand
   47    49     1     0     0
SMALL
GAST_HUCK


@<TRIPOS>ATOM
      1 C1         16.4370    8.1110   18.8350 C.ar      1 IN7         0.0403
      2 C2         16.4080    8.4840   20.1980 C.ar      1 IN7        -0.0425
      3 C3         15.9000    7.6090   21.1620 C.ar      1 IN7        -0.0471
      4 C7         18.0070    9.2300   15.6150 C.3       1 IN7        -0.0206
      5 C6         15.9040    6.8600   18.4390 C.ar      1 IN7        -0.0425
      6 O2         15.0640    3.8730   21.5820 O.2       1 IN7        -0.1519
      7 C4         15.4570    6.3390   20.7640 C.ar      1 IN7         0.0948
      8 C5         15.3990    5.9670   19.4060 C.ar      1 IN7        -0.0471
      9 O3         11.8280    7.3580   21.4890 O.co2     1 IN7        -0.5673
     10 S          15.0200    5.2200   22.0640 S.o2      1 IN7         0.0638
     11 C11        18.5830   10.5510   16.1060 C.3       1 IN7        -0.0038
     12 C13        18.6300   10.8780   17.5890 C.3       1 IN7        -0.0206
     13 C15        17.4540   10.3170   18.3620 C.3       1 IN7         0.0288
     14 N1         16.9670    8.9940   17.9170 N.pl3     1 IN7        -0.3085
     15 C18        16.8520    8.7250   16.4730 C.3       1 IN7         0.0288
     16 C10        20.6670   13.0040   13.2980 C.ar      1 IN7        -0.0687
     17 C12        21.2510   12.7380   14.5490 C.ar      1 IN7        -0.0686
     18 C14        20.5460   11.9450   15.4800 C.ar      1 IN7        -0.0601
     19 C16        19.2700   11.4320   15.1510 C.ar      1 IN7        -0.0398
     20 C17        18.6770   11.7290   13.9010 C.ar      1 IN7        -0.0601
     21 C19        19.3870   12.5120   12.9650 C.ar      1 IN7        -0.0686
     22 O1         15.7680    5.6020   23.2110 O.2       1 IN7        -0.1519
     23 N2         13.4270    5.4730   22.6580 N.am      1 IN7        -0.2358
     24 C8         12.2390    5.0450   21.9600 C.3       1 IN7         0.0788
     25 C9         11.8140    6.1060   21.0180 C.2       1 IN7         0.0533
     26 O4         11.5150    5.8160   19.9150 O.co2     1 IN7        -0.5673
     27 H1         16.7826    9.4560   20.4978 H         1 IN7         0.0515
     28 H2         15.8490    7.9076   22.2028 H         1 IN7         0.0602
     29 H3         18.8064    8.4745   15.6245 H         1 IN7         0.0309
     30 H4         17.6443    9.3673   14.5856 H         1 IN7         0.0309
     31 H5         15.8843    6.5885   17.3897 H         1 IN7         0.0515
     32 H6         14.9749    5.0140   19.1110 H         1 IN7         0.0602
     33 H7         17.6228   11.0715   15.9752 H         1 IN7         0.0462
     34 H8         19.5563   10.4599   18.0098 H         1 IN7         0.0309
     35 H9         18.6352   11.9718   17.7057 H         1 IN7         0.0309
     36 H10        17.7536   10.2296   19.4168 H         1 IN7         0.0515
     37 H11        16.6213   11.0304   18.2752 H         1 IN7         0.0515
     38 H12        15.9287    9.2019   16.1123 H         1 IN7         0.0515
     39 H13        16.7798    7.6359   16.3362 H         1 IN7         0.0515
     40 H14        21.2114   13.5995   12.5741 H         1 IN7         0.0559
     41 H15        22.2287   13.1362   14.7951 H         1 IN7         0.0599
     42 H16        20.9832   11.7291   16.4481 H         1 IN7         0.0557
     43 H17        17.6862   11.3585   13.6641 H         1 IN7         0.0557
     44 H18        18.9519   12.7337   11.9972 H         1 IN7         0.0599
     45 H19        13.3177    5.9420   23.5344 H         1 IN7         0.1693
     46 H20        11.4348    4.8550   22.6861 H         1 IN7         0.0644
     47 H21        12.4539    4.1223   21.4010 H         1 IN7         0.0644
@<TRIPOS>BOND
     1   14    1 1  
     2    1    5 ar 
     3    1    2 ar 
     4    2    3 ar 
     5    3    7 ar 
     6    7   10 1  
     7    7    8 ar 
     8    5    8 ar 
     9   10    6 2  
    10   10   23 am 
    11   10   22 2  
    12   23   24 1  
    13   24   25 1  
    14   25    9 ar 
    15   25   26 ar 
    16   14   15 1  
    17   14   13 1  
    18   13   12 1  
    19   12   11 1  
    20   11    4 1  
    21   11   19 1  
    22   19   20 ar 
    23   19   18 ar 
    24   18   17 ar 
    25   17   16 ar 
    26   16   21 ar 
    27   21   20 ar 
    28    4   15 1  
    29    2   27 1  
    30    3   28 1  
    31    4   29 1  
    32    4   30 1  
    33    5   31 1  
    34    8   32 1  
    35   11   33 1  
    36   12   34 1  
    37   12   35 1  
    38   13   36 1  
    39   13   37 1  
    40   15   38 1  
    41   15   39 1  
    42   16   40 1  
    43   17   41 1  
    44   18   42 1  
    45   20   43 1  
    46   21   44 1  
    47   23   45 1  
    48   24   46 1  
    49   24   47 1  
@<TRIPOS>SUBSTRUCTURE
     1 IN7         1

