### 
### Created by X-TOOL on Mon Sep 10 21:12:46 2018
### 

@<TRIPOS>MOLECULE
1b9j_ligand
   66    65     1     0     0
SMALL
GAST_HUCK


@<TRIPOS>ATOM
      1 N           6.9680   16.5180   15.1370 N.4       1 LYS         0.2379
      2 CA          6.4590   17.7920   14.5610 C.3       1 LYS         0.0650
      3 C           5.2330   18.2580   15.3170 C.2       1 LYS         0.2267
      4 O           4.5010   17.4540   15.8810 O.2       1 LYS        -0.3907
      5 CB          6.2740   17.7080   13.0310 C.3       1 LYS         0.0080
      6 CG          5.3660   16.5370   12.6220 C.3       1 LYS        -0.0410
      7 CD          5.2460   16.4740   11.0950 C.3       1 LYS        -0.0123
      8 CE          6.5240   15.8850   10.4800 C.3       1 LYS        -0.0354
      9 NZ          6.6860   14.4660   10.9100 N.4       1 LYS         0.2185
     10 N           5.0010   19.5670   15.3040 N.am      1 LEU        -0.2610
     11 CA          3.9000   20.1550   16.0690 C.3       1 LEU         0.1313
     12 C           2.5980   20.1540   15.2880 C.2       1 LEU         0.2034
     13 O           2.5550   20.4520   14.1020 O.2       1 LEU        -0.3944
     14 CB          4.2860   21.6050   16.4320 C.3       1 LEU        -0.0101
     15 CG          5.2310   21.6380   17.6610 C.3       1 LEU        -0.0425
     16 CD1         6.6620   21.3850   17.2120 C.3       1 LEU        -0.0625
     17 CD2         5.1140   22.9610   18.3830 C.3       1 LEU        -0.0625
     18 N           1.5100   19.7250   15.9380 N.am      1 LYS        -0.2695
     19 CA          0.2260   19.7150   15.2460 C.3       1 LYS         0.0944
     20 C          -0.7570   20.6010   16.0220 C.2       1 LYS         0.0601
     21 O          -1.7670   20.9340   15.3740 O.co2     1 LYS        -0.5666
     22 CB         -0.3840   18.3050   15.1970 C.3       1 LYS        -0.0177
     23 CG         -1.4300   18.2580   14.0720 C.3       1 LYS        -0.0446
     24 CD         -2.1520   16.9300   14.0720 C.3       1 LYS        -0.0125
     25 CE         -3.3970   16.9820   13.1820 C.3       1 LYS        -0.0354
     26 NZ         -2.9390   16.8030   11.7770 N.4       1 LYS         0.2185
     27 OXT        -0.4940   20.9340   17.1970 O.co2     1 LYS        -0.5666
     28 H1          7.7833   16.2197   14.6247 H         1 LYS         0.2015
     29 H2          6.2530   15.8105   15.0721 H         1 LYS         0.2015
     30 H3          7.2127   16.6607   16.1044 H         1 LYS         0.2015
     31 H4          7.2360   18.5517   14.7315 H         1 LYS         0.1098
     32 H5          7.2595   17.5734   12.5613 H         1 LYS         0.0346
     33 H6          5.8237   18.6467   12.6760 H         1 LYS         0.0346
     34 H7          4.3672   16.6804   13.0601 H         1 LYS         0.0270
     35 H8          5.7971   15.5953   12.9925 H         1 LYS         0.0270
     36 H9          5.0895   17.4893   10.7018 H         1 LYS         0.0317
     37 H10         4.3887   15.8400   10.8249 H         1 LYS         0.0317
     38 H11         7.3933   16.4694   10.8156 H         1 LYS         0.0813
     39 H12         6.4545   15.9281    9.3831 H         1 LYS         0.0813
     40 H13         7.5261   14.0855   10.5032 H         1 LYS         0.1994
     41 H14         5.8906   13.9287   10.6023 H         1 LYS         0.1994
     42 H15         6.7509   14.4248   11.9151 H         1 LYS         0.1994
     43 H16         5.5915   20.1630   14.7598 H         1 LEU         0.1884
     44 H17         3.7565   19.5733   16.9915 H         1 LEU         0.0800
     45 H18         3.3730   22.1726   16.6651 H         1 LEU         0.0315
     46 H19         4.7960   22.0670   15.5738 H         1 LEU         0.0315
     47 H20         4.9349   20.8371   18.3544 H         1 LEU         0.0298
     48 H21         7.3300   21.4090   18.0856 H         1 LEU         0.0232
     49 H22         6.9652   22.1641   16.4971 H         1 LEU         0.0232
     50 H23         6.7258   20.3990   16.7286 H         1 LEU         0.0232
     51 H24         4.0709   23.1172   18.6954 H         1 LEU         0.0232
     52 H25         5.4207   23.7747   17.7094 H         1 LEU         0.0232
     53 H26         5.7651   22.9538   19.2696 H         1 LEU         0.0232
     54 H27         1.5763   19.4151   16.8864 H         1 LYS         0.1875
     55 H28         0.3597   20.0972   14.2232 H         1 LYS         0.0726
     56 H29        -0.8653   18.0765   16.1593 H         1 LYS         0.0305
     57 H30         0.4066   17.5666   14.9980 H         1 LYS         0.0305
     58 H31        -0.9262   18.3955   13.1039 H         1 LYS         0.0269
     59 H32        -2.1603   19.0665   14.2234 H         1 LYS         0.0269
     60 H33        -2.4553   16.6855   15.1007 H         1 LYS         0.0317
     61 H34        -1.4727   16.1513   13.6950 H         1 LYS         0.0317
     62 H35        -3.9003   17.9537   13.2938 H         1 LYS         0.0813
     63 H36        -4.0919   16.1752   13.4579 H         1 LYS         0.0813
     64 H37        -3.7342   16.8316   11.1582 H         1 LYS         0.1994
     65 H38        -2.4742   15.9132   11.6859 H         1 LYS         0.1994
     66 H39        -2.2986   17.5430   11.5355 H         1 LYS         0.1994
@<TRIPOS>BOND
     1    2    1 1  
     2    2    5 1  
     3    3    2 1  
     4    3    4 2  
     5    5    6 1  
     6    6    7 1  
     7    7    8 1  
     8    8    9 1  
     9   11   10 1  
    10   11   14 1  
    11   12   11 1  
    12   12   13 2  
    13   14   15 1  
    14   15   16 1  
    15   15   17 1  
    16   10    3 am 
    17   18   19 1  
    18   19   22 1  
    19   19   20 1  
    20   20   21 ar 
    21   20   27 ar 
    22   22   23 1  
    23   23   24 1  
    24   24   25 1  
    25   25   26 1  
    26   12   18 am 
    27    1   28 1  
    28    1   29 1  
    29    1   30 1  
    30    2   31 1  
    31    5   32 1  
    32    5   33 1  
    33    6   34 1  
    34    6   35 1  
    35    7   36 1  
    36    7   37 1  
    37    8   38 1  
    38    8   39 1  
    39    9   40 1  
    40    9   41 1  
    41    9   42 1  
    42   10   43 1  
    43   11   44 1  
    44   14   45 1  
    45   14   46 1  
    46   15   47 1  
    47   16   48 1  
    48   16   49 1  
    49   16   50 1  
    50   17   51 1  
    51   17   52 1  
    52   17   53 1  
    53   18   54 1  
    54   19   55 1  
    55   22   56 1  
    56   22   57 1  
    57   23   58 1  
    58   23   59 1  
    59   24   60 1  
    60   24   61 1  
    61   25   62 1  
    62   25   63 1  
    63   26   64 1  
    64   26   65 1  
    65   26   66 1  
@<TRIPOS>SUBSTRUCTURE
     1 LYS         1

