### 
### Created by X-TOOL on Mon Sep 10 21:12:46 2018
### 

@<TRIPOS>MOLECULE
1b9s_ligand
   40    40     1     0     0
SMALL
GAST_HUCK


@<TRIPOS>ATOM
      1 C1         33.5870   -9.7130   64.2290 C.ar      1 FDI        -0.0495
      2 C2         32.2850   -9.4600   63.7000 C.ar      1 FDI         0.0931
      3 C3         31.2190  -10.3660   64.0090 C.ar      1 FDI         0.0932
      4 C4         31.4760  -11.5020   64.8300 C.ar      1 FDI        -0.0398
      5 C5         32.7670  -11.7590   65.3550 C.ar      1 FDI        -0.0193
      6 C6         33.8260  -10.8520   65.0500 C.ar      1 FDI        -0.0765
      7 C10        32.9920  -12.9650   66.2010 C.2       1 FDI         0.0493
      8 O11        31.9170  -13.7590   66.4190 O.co2     1 FDI        -0.5649
      9 O12        34.0660  -13.2130   66.6530 O.co2     1 FDI        -0.5649
     10 N13        29.9440  -10.1580   63.5200 N.am      1 FDI        -0.2379
     11 C14        28.8040  -10.6760   64.0940 C.2       1 FDI         0.2033
     12 C15        27.9830   -9.6620   64.9570 C.3       1 FDI         0.0534
     13 O16        28.4160  -11.8350   63.9350 O.2       1 FDI        -0.3863
     14 C17        27.6710   -8.3960   64.1190 C.3       1 FDI        -0.0357
     15 C18        26.2190   -8.2830   63.6280 C.3       1 FDI        -0.0629
     16 C24        28.7640   -9.3610   66.2760 C.3       1 FDI        -0.0357
     17 C26        28.7360  -10.4960   67.3210 C.3       1 FDI        -0.0629
     18 N32        32.0850   -8.3570   62.9020 N.am      1 FDI        -0.2368
     19 C33        31.5340   -7.1880   63.3370 C.2       1 FDI         0.1983
     20 C34        31.4230   -6.1220   62.2430 C.3       1 FDI         0.0312
     21 O38        31.1480   -6.9660   64.4800 O.2       1 FDI        -0.3863
     22 H1         34.4002   -9.0325   64.0038 H         1 FDI         0.0461
     23 H2         30.6657  -12.1850   65.0581 H         1 FDI         0.0481
     24 H3         34.8190  -11.0313   65.4460 H         1 FDI         0.0486
     25 H4         29.8423   -9.5967   62.6986 H         1 FDI         0.2215
     26 H5         27.0249  -10.1279   65.2307 H         1 FDI         0.0542
     27 H6         28.3297   -8.3991   63.2380 H         1 FDI         0.0290
     28 H7         27.8912   -7.5141   64.7384 H         1 FDI         0.0290
     29 H8         26.0996   -7.3568   63.0467 H         1 FDI         0.0231
     30 H9         25.5399   -8.2631   64.4931 H         1 FDI         0.0231
     31 H10        25.9783   -9.1481   62.9927 H         1 FDI         0.0231
     32 H11        28.3256   -8.4628   66.7353 H         1 FDI         0.0290
     33 H12        29.8139   -9.1636   66.0140 H         1 FDI         0.0290
     34 H13        29.3097  -10.1913   68.2087 H         1 FDI         0.0231
     35 H14        29.1834  -11.4033   66.8890 H         1 FDI         0.0231
     36 H15        27.6950  -10.7025   67.6103 H         1 FDI         0.0231
     37 H16        32.3611   -8.4164   61.9427 H         1 FDI         0.2230
     38 H17        30.9722   -5.2109   62.6633 H         1 FDI         0.0471
     39 H18        30.7915   -6.4999   61.4255 H         1 FDI         0.0471
     40 H19        32.4255   -5.8894   61.8545 H         1 FDI         0.0471
@<TRIPOS>BOND
     1    1    6 ar 
     2    1    2 ar 
     3    2   18 1  
     4    2    3 ar 
     5    3   10 1  
     6    3    4 ar 
     7    4    5 ar 
     8    5    7 1  
     9    5    6 ar 
    10    7    9 ar 
    11    7    8 ar 
    12   10   11 am 
    13   11   13 2  
    14   11   12 1  
    15   12   16 1  
    16   12   14 1  
    17   14   15 1  
    18   16   17 1  
    19   18   19 am 
    20   19   21 2  
    21   19   20 1  
    22    1   22 1  
    23    4   23 1  
    24    6   24 1  
    25   10   25 1  
    26   12   26 1  
    27   14   27 1  
    28   14   28 1  
    29   15   29 1  
    30   15   30 1  
    31   15   31 1  
    32   16   32 1  
    33   16   33 1  
    34   17   34 1  
    35   17   35 1  
    36   17   36 1  
    37   18   37 1  
    38   20   38 1  
    39   20   39 1  
    40   20   40 1  
@<TRIPOS>SUBSTRUCTURE
     1 FDI         1

