### 
### Created by X-TOOL on Mon Sep 10 21:12:47 2018
### 

@<TRIPOS>MOLECULE
1b9t_ligand
   41    42     1     0     0
SMALL
GAST_HUCK


@<TRIPOS>ATOM
      1 C1         33.8350   -9.7190   64.6050 C.ar      1 RAI         0.0291
      2 C2         32.5300   -9.4640   64.0870 C.ar      1 RAI         0.2209
      3 C3         31.4600  -10.3440   64.4570 C.ar      1 RAI         0.1756
      4 C4         31.7010  -11.4430   65.3090 C.ar      1 RAI         0.0274
      5 C5         32.9860  -11.7000   65.8150 C.ar      1 RAI         0.0406
      6 C6         34.0630  -10.8250   65.4590 C.ar      1 RAI        -0.0163
      7 C10        33.2090  -12.8620   66.6940 C.2       1 RAI         0.0819
      8 O11        32.1250  -13.6200   66.9520 O.co2     1 RAI        -0.5534
      9 N12        30.1790  -10.1610   64.0130 N.pl3     1 RAI        -0.2608
     10 C13        29.2990  -11.0450   63.5120 C.cat     1 RAI         0.1480
     11 N14        29.7330  -12.1730   62.9090 N.pl3     1 RAI        -0.3533
     12 N15        32.2740   -8.3760   63.2370 N.am      1 RAI        -0.1364
     13 C16        32.4450   -8.3520   61.7310 C.3       1 RAI         0.1643
     14 C17        32.2020   -6.8470   61.4010 C.3       1 RAI         0.0133
     15 C18        31.5800   -6.1860   62.6270 C.3       1 RAI         0.0637
     16 C19        31.7990   -7.1960   63.7300 C.2       1 RAI         0.2726
     17 C24        31.3670   -9.2380   61.0210 C.3       1 RAI         0.0891
     18 O25        31.6700   -9.4450   59.6410 O.3       1 RAI        -0.3906
     19 C28        33.8760   -8.8440   61.2880 C.3       1 RAI         0.0891
     20 O29        34.4430   -7.9650   60.3610 O.3       1 RAI        -0.3906
     21 O32        34.2810  -13.1100   67.1400 O.co2     1 RAI        -0.5534
     22 N33        27.9970  -10.7800   63.6210 N.pl3     1 RAI        -0.3533
     23 O34        31.5580   -6.9480   64.9060 O.2       1 RAI        -0.3427
     24 H1         34.6565   -9.0621   64.3431 H         1 RAI         0.0750
     25 H2         30.8812  -12.0995   65.5773 H         1 RAI         0.0688
     26 H3         35.0585  -11.0108   65.8458 H         1 RAI         0.0777
     27 H4         29.8342   -9.1922   64.0720 H         1 RAI         0.2213
     28 H5         29.0540  -12.8467   62.5270 H         1 RAI         0.1652
     29 H6         30.7430  -12.3595   62.8312 H         1 RAI         0.1652
     30 H7         31.5187   -6.7592   60.5435 H         1 RAI         0.0334
     31 H8         33.1580   -6.3594   61.1596 H         1 RAI         0.0334
     32 H9         30.5067   -6.0022   62.4712 H         1 RAI         0.0525
     33 H10        32.0847   -5.2366   62.8590 H         1 RAI         0.0525
     34 H11        30.3897   -8.7393   61.0992 H         1 RAI         0.0601
     35 H12        31.3217  -10.2146   61.5251 H         1 RAI         0.0601
     36 H13        32.5106   -9.8809   59.5644 H         1 RAI         0.2096
     37 H14        33.7883   -9.8409   60.8314 H         1 RAI         0.0601
     38 H15        34.5265   -8.9020   62.1732 H         1 RAI         0.0601
     39 H16        33.8863   -7.9143   59.5928 H         1 RAI         0.2096
     40 H17        27.6846   -9.9147   64.0841 H         1 RAI         0.1652
     41 H18        27.3035  -11.4406   63.2421 H         1 RAI         0.1652
@<TRIPOS>BOND
     1    1    6 ar 
     2    1    2 ar 
     3    2   12 1  
     4    2    3 ar 
     5    3    9 1  
     6    3    4 ar 
     7    4    5 ar 
     8    5    7 1  
     9    6    5 ar 
    10    7   21 ar 
    11    7    8 ar 
    12    9   10 ar 
    13   10   22 ar 
    14   10   11 ar 
    15   12   16 am 
    16   12   13 1  
    17   13   19 1  
    18   13   17 1  
    19   13   14 1  
    20   14   15 1  
    21   15   16 1  
    22   16   23 2  
    23   17   18 1  
    24   19   20 1  
    25    1   24 1  
    26    4   25 1  
    27    6   26 1  
    28    9   27 1  
    29   11   28 1  
    30   11   29 1  
    31   14   30 1  
    32   14   31 1  
    33   15   32 1  
    34   15   33 1  
    35   17   34 1  
    36   17   35 1  
    37   18   36 1  
    38   19   37 1  
    39   19   38 1  
    40   20   39 1  
    41   22   40 1  
    42   22   41 1  
@<TRIPOS>SUBSTRUCTURE
     1 RAI         1

