### 
### Created by X-TOOL on Mon Sep 10 21:12:47 2018
### 

@<TRIPOS>MOLECULE
1b9v_ligand
   50    51     1     0     0
SMALL
GAST_HUCK


@<TRIPOS>ATOM
      1 C1         33.8750   -9.4120   65.0710 C.ar      1 RA2        -0.0477
      2 C2         32.6830   -9.1850   64.3260 C.ar      1 RA2         0.0928
      3 C3         31.6360  -10.1660   64.3690 C.ar      1 RA2         0.0652
      4 C4         31.8140  -11.3380   65.1410 C.ar      1 RA2        -0.0433
      5 C5         32.9940  -11.5710   65.8730 C.ar      1 RA2        -0.0175
      6 C6         34.0310  -10.5980   65.8420 C.ar      1 RA2        -0.0745
      7 C10        33.1340  -12.8250   66.6530 C.2       1 RA2         0.0497
      8 N11        32.5210   -8.0310   63.5490 N.am      1 RA2        -0.2116
      9 N12        30.4840   -9.9330   63.6410 N.pl3     1 RA2        -0.3248
     10 C13        29.1840  -10.6300   63.7590 C.3       1 RA2         0.0322
     11 C14        29.2160  -11.9210   62.8880 C.3       1 RA2        -0.0339
     12 C15        27.9490  -12.7780   62.9190 C.3       1 RA2        -0.0633
     13 C21        28.0610   -9.6490   63.3340 C.3       1 RA2        -0.0339
     14 C23        27.7650   -8.5320   64.3440 C.3       1 RA2        -0.0633
     15 C29        33.0660   -7.7960   62.1590 C.3       1 RA2         0.1233
     16 C30        32.0960   -6.7030   61.6670 C.3       1 RA2        -0.0002
     17 C31        31.7780   -5.8770   62.9210 C.3       1 RA2         0.0459
     18 C32        31.7970   -6.9540   63.9980 C.2       1 RA2         0.2048
     19 O37        31.2300   -6.8410   65.0770 O.2       1 RA2        -0.3857
     20 C38        33.0290   -9.0750   61.2490 C.3       1 RA2         0.0773
     21 O39        31.7020   -9.4880   60.9290 O.3       1 RA2        -0.3919
     22 C42        34.5150   -7.2100   62.1450 C.3       1 RA2         0.0773
     23 O43        35.1150   -7.1970   63.4350 O.3       1 RA2        -0.3919
     24 O49        32.0780  -13.6760   66.5930 O.co2     1 RA2        -0.5649
     25 O50        34.1150  -13.0700   67.2850 O.co2     1 RA2        -0.5649
     26 H1         34.6701   -8.6755   65.0507 H         1 RA2         0.0469
     27 H2         31.0208  -12.0763   65.1698 H         1 RA2         0.0496
     28 H3         34.9419  -10.7601   66.4068 H         1 RA2         0.0503
     29 H4         30.5368   -9.1865   62.9333 H         1 RA2         0.1717
     30 H5         29.0195  -10.9200   64.8072 H         1 RA2         0.0542
     31 H6         30.0527  -12.5434   63.2380 H         1 RA2         0.0284
     32 H7         29.3941  -11.6200   61.8451 H         1 RA2         0.0284
     33 H8         28.0850  -13.6571   62.2719 H         1 RA2         0.0230
     34 H9         27.0962  -12.1849   62.5572 H         1 RA2         0.0230
     35 H10        27.7549  -13.1083   63.9501 H         1 RA2         0.0230
     36 H11        27.1383  -10.2290   63.1853 H         1 RA2         0.0284
     37 H12        28.3571   -9.1811   62.3836 H         1 RA2         0.0284
     38 H13        26.9592   -7.8913   63.9564 H         1 RA2         0.0230
     39 H14        28.6712   -7.9280   64.4988 H         1 RA2         0.0230
     40 H15        27.4523   -8.9760   65.3006 H         1 RA2         0.0230
     41 H16        31.1804   -7.1526   61.2554 H         1 RA2         0.0321
     42 H17        32.5737   -6.0762   60.8996 H         1 RA2         0.0321
     43 H18        30.7908   -5.3974   62.8481 H         1 RA2         0.0508
     44 H19        32.5454   -5.1105   63.1040 H         1 RA2         0.0508
     45 H20        33.5349   -9.8967   61.7770 H         1 RA2         0.0589
     46 H21        33.5641   -8.8560   60.3132 H         1 RA2         0.0589
     47 H22        31.7363  -10.2621   60.3794 H         1 RA2         0.2095
     48 H23        34.4736   -6.1782   61.7659 H         1 RA2         0.0589
     49 H24        35.1357   -7.8224   61.4745 H         1 RA2         0.0589
     50 H25        35.9904   -6.8334   63.3722 H         1 RA2         0.2095
@<TRIPOS>BOND
     1    1    6 ar 
     2    1    2 ar 
     3    2    8 1  
     4    2    3 ar 
     5    3    9 1  
     6    3    4 ar 
     7    4    5 ar 
     8    5    7 1  
     9    5    6 ar 
    10    7   25 ar 
    11    7   24 ar 
    12    9   10 1  
    13   10   13 1  
    14   10   11 1  
    15   11   12 1  
    16   13   14 1  
    17    8   18 am 
    18    8   15 1  
    19   15   22 1  
    20   15   20 1  
    21   15   16 1  
    22   16   17 1  
    23   17   18 1  
    24   18   19 2  
    25   20   21 1  
    26   22   23 1  
    27    1   26 1  
    28    4   27 1  
    29    6   28 1  
    30    9   29 1  
    31   10   30 1  
    32   11   31 1  
    33   11   32 1  
    34   12   33 1  
    35   12   34 1  
    36   12   35 1  
    37   13   36 1  
    38   13   37 1  
    39   14   38 1  
    40   14   39 1  
    41   14   40 1  
    42   16   41 1  
    43   16   42 1  
    44   17   43 1  
    45   17   44 1  
    46   20   45 1  
    47   20   46 1  
    48   21   47 1  
    49   22   48 1  
    50   22   49 1  
    51   23   50 1  
@<TRIPOS>SUBSTRUCTURE
     1 RA2         1

