### 
### Created by X-TOOL on Mon Sep 10 21:12:46 2018
### 

@<TRIPOS>MOLECULE
1ba8_ligand
   65    66     1     0     0
SMALL
GAST_HUCK


@<TRIPOS>ATOM
      1 N          17.4360  -16.4350   23.5770 N.am      1 0IT        -0.2281
      2 CA         18.4420  -15.7570   22.8520 C.3       1 0IT         0.1265
      3 CB         19.0330  -16.4690   21.6970 C.3       1 0IT        -0.0141
      4 CG         19.9950  -15.6810   20.8840 C.3       1 0IT        -0.0285
      5 C          17.9020  -14.3370   22.4450 C.2       1 0IT         0.2023
      6 CD         19.7720  -14.1610   20.8010 C.3       1 0IT         0.0367
      7 O          16.8830  -13.9820   22.9910 O.2       1 0IT        -0.3946
      8 N          18.5700  -13.7210   21.5090 N.am      1 0IT        -0.2529
      9 CA         18.0610  -12.3810   21.1590 C.3       1 0IT         0.1227
     10 C          16.7650  -12.5590   20.3690 C.2       1 0IT         0.1990
     11 O          16.5080  -13.6410   19.8490 O.2       1 0IT        -0.3948
     12 N          15.9480  -11.5220   20.4040 N.am      1 0IT        -0.2800
     13 CA         14.6430  -11.5230   19.6890 C.3       1 0IT         0.0652
     14 C          14.7650  -10.7360   18.4010 C.3       1 0IT         0.0671
     15 O          13.7430  -10.2930   17.8470 O.3       1 0IT        -0.3927
     16 CB         13.5370  -10.9750   20.5490 C.3       1 0IT        -0.0246
     17 CG         13.1190  -11.9050   21.6620 C.3       1 0IT        -0.0176
     18 CD         12.1690  -11.2620   22.5840 C.3       1 0IT         0.0626
     19 NE         11.6040  -12.2630   23.4450 N.pl3     1 0IT        -0.2723
     20 CZ         10.8140  -12.0520   24.4600 C.cat     1 0IT         0.2882
     21 NH1        10.5110  -10.7690   24.7930 N.pl3     1 0IT        -0.2849
     22 NH2        10.1950  -13.0590   25.1040 N.pl3     1 0IT        -0.2849
     23 C          18.5050  -17.0080   26.1270 C.3       1 0IT         0.1181
     24 C1         19.7260  -16.1890   25.9210 C.ar      1 0IT        -0.0204
     25 C2         19.5880  -14.8030   26.0630 C.ar      1 0IT        -0.0587
     26 C3         20.7160  -14.0070   25.8690 C.ar      1 0IT        -0.0685
     27 C4         21.9460  -14.5170   25.5360 C.ar      1 0IT        -0.0687
     28 C5         22.0680  -15.8840   25.3950 C.ar      1 0IT        -0.0685
     29 C6         20.9500  -16.7130   25.5920 C.ar      1 0IT        -0.0587
     30 S          17.8190  -17.6730   24.6280 S.o2      1 0IT         0.0511
     31 O1S        16.5900  -18.2410   24.9980 O.2       1 0IT        -0.1532
     32 O2S        18.8640  -18.3330   23.9230 O.2       1 0IT        -0.1532
     33 H1         16.4795  -16.1685   23.4582 H         1 0IT         0.1703
     34 H2         19.2717  -15.5989   23.5567 H         1 0IT         0.0753
     35 H3         18.2115  -16.7855   21.0375 H         1 0IT         0.0309
     36 H4         19.5592  -17.3563   22.0789 H         1 0IT         0.0309
     37 H5         19.9613  -16.0760   19.8579 H         1 0IT         0.0287
     38 H6         20.9969  -15.8450   21.3074 H         1 0IT         0.0287
     39 H7         19.6789  -13.8775   19.7423 H         1 0IT         0.0524
     40 H8         20.6434  -13.6541   21.2411 H         1 0IT         0.0524
     41 H9         18.8023  -11.8489   20.5448 H         1 0IT         0.0765
     42 H10        17.8633  -11.8057   22.0755 H         1 0IT         0.0765
     43 H11        16.2143  -10.7120   20.9265 H         1 0IT         0.1855
     44 H12        14.3915  -12.5635   19.4361 H         1 0IT         0.0579
     45 H13        15.2625  -11.3930   17.6724 H         1 0IT         0.0580
     46 H14        15.4105   -9.8717   18.6160 H         1 0IT         0.0580
     47 H15        13.9893   -9.8268   17.0567 H         1 0IT         0.2095
     48 H16        12.6626  -10.7825   19.9100 H         1 0IT         0.0289
     49 H17        13.8797  -10.0301   20.9958 H         1 0IT         0.0289
     50 H18        14.0128  -12.2089   22.2266 H         1 0IT         0.0300
     51 H19        12.6427  -12.7941   21.2231 H         1 0IT         0.0300
     52 H20        11.3677  -10.7757   22.0082 H         1 0IT         0.0689
     53 H21        12.6946  -10.5088   23.1893 H         1 0IT         0.0689
     54 H22        11.8467  -13.2429   23.2405 H         1 0IT         0.2642
     55 H23         9.8888  -10.5773   25.5912 H         1 0IT         0.2615
     56 H24        10.9036   -9.9888   24.2471 H         1 0IT         0.2615
     57 H25        10.4139  -14.0362   24.8629 H         1 0IT         0.2615
     58 H26         9.5024  -12.8524   25.8379 H         1 0IT         0.2615
     59 H27        17.7421  -16.3770   26.6063 H         1 0IT         0.0682
     60 H28        18.7589  -17.8461   26.7927 H         1 0IT         0.0682
     61 H29        18.6311  -14.3613   26.3166 H         1 0IT         0.0557
     62 H30        20.6169  -12.9340   25.9868 H         1 0IT         0.0599
     63 H31        22.7982  -13.8636   25.3879 H         1 0IT         0.0559
     64 H32        23.0257  -16.3186   25.1324 H         1 0IT         0.0599
     65 H33        21.0572  -17.7861   25.4819 H         1 0IT         0.0557
@<TRIPOS>BOND
     1    1    2 1  
     2   30    1 am 
     3    2    3 1  
     4    2    5 1  
     5    3    4 1  
     6    4    6 1  
     7    5    7 2  
     8    5    8 am 
     9    8    6 1  
    10    8    9 1  
    11    9   10 1  
    12   10   11 2  
    13   10   12 am 
    14   12   13 1  
    15   13   14 1  
    16   13   16 1  
    17   14   15 1  
    18   16   17 1  
    19   17   18 1  
    20   18   19 1  
    21   19   20 ar 
    22   20   21 ar 
    23   20   22 ar 
    24   23   24 1  
    25   23   30 1  
    26   24   25 ar 
    27   24   29 ar 
    28   25   26 ar 
    29   26   27 ar 
    30   27   28 ar 
    31   28   29 ar 
    32   30   31 2  
    33   30   32 2  
    34    1   33 1  
    35    2   34 1  
    36    3   35 1  
    37    3   36 1  
    38    4   37 1  
    39    4   38 1  
    40    6   39 1  
    41    6   40 1  
    42    9   41 1  
    43    9   42 1  
    44   12   43 1  
    45   13   44 1  
    46   14   45 1  
    47   14   46 1  
    48   15   47 1  
    49   16   48 1  
    50   16   49 1  
    51   17   50 1  
    52   17   51 1  
    53   18   52 1  
    54   18   53 1  
    55   19   54 1  
    56   21   55 1  
    57   21   56 1  
    58   22   57 1  
    59   22   58 1  
    60   23   59 1  
    61   23   60 1  
    62   25   61 1  
    63   26   62 1  
    64   27   63 1  
    65   28   64 1  
    66   29   65 1  
@<TRIPOS>SUBSTRUCTURE
     1 0IT         1

