### 
### Created by X-TOOL on Mon Sep 10 21:12:46 2018
### 

@<TRIPOS>MOLECULE
1bai_ligand
  128   128     1     0     0
SMALL
GAST_HUCK


@<TRIPOS>ATOM
      1 N           9.0110   16.0520   33.5660 N.4       1 0Q4         0.2379
      2 CA          7.7380   15.7040   34.2690 C.3       1 0Q4         0.0651
      3 C           6.5830   16.5830   33.6910 C.2       1 0Q4         0.2267
      4 O           6.7320   17.8130   33.5640 O.2       1 0Q4        -0.3907
      5 CB          7.9330   15.8910   35.7790 C.3       1 0Q4         0.0110
      6 CG          6.7740   15.3950   36.7100 C.3       1 0Q4        -0.0125
      7 CD          6.9490   13.9610   37.3230 C.3       1 0Q4         0.0629
      8 NE          7.4490   13.9370   38.7040 N.pl3     1 0Q4        -0.2723
      9 CZ          6.7710   14.3790   39.7660 C.cat     1 0Q4         0.2882
     10 NH1         5.5520   14.8650   39.6020 N.pl3     1 0Q4        -0.2849
     11 NH2         7.3540   14.4510   40.9720 N.pl3     1 0Q4        -0.2849
     12 N           5.4770   15.9390   33.2840 N.am      1 0Q4        -0.2608
     13 CA          4.3340   16.6170   32.6700 C.3       1 0Q4         0.1334
     14 C           2.9980   16.2560   33.3700 C.2       1 0Q4         0.2042
     15 O           2.3670   15.2410   33.1030 O.2       1 0Q4        -0.3944
     16 CB          4.3300   16.3670   31.0750 C.3       1 0Q4        -0.0063
     17 CG1         3.0980   16.9810   30.4060 C.3       1 0Q4        -0.0584
     18 CG2         5.5790   16.9930   30.4220 C.3       1 0Q4        -0.0584
     19 N           2.5100   17.1660   34.1940 N.am      1 0Q4        -0.2637
     20 CA          1.3020   16.9140   34.9570 C.3       1 0Q4         0.1312
     21 C          -0.0030   17.4050   34.3440 C.2       1 0Q4         0.2040
     22 O          -0.8950   17.8800   35.0450 O.2       1 0Q4        -0.3944
     23 CB          1.4900   17.4170   36.4090 C.3       1 0Q4        -0.0101
     24 CG          2.8590   17.0690   37.0590 C.3       1 0Q4        -0.0425
     25 CD1         3.0070   17.6220   38.4760 C.3       1 0Q4        -0.0625
     26 CD2         3.0600   15.5650   37.0710 C.3       1 0Q4        -0.0625
     27 N          -0.1410   17.1960   33.0470 N.am      1 0Q4        -0.2619
     28 CA         -1.3440   17.5610   32.2900 C.3       1 0Q4         0.1404
     29 C          -2.4520   16.5880   32.7810 C.2       1 0Q4         0.2060
     30 O          -2.2050   15.3880   32.9240 O.2       1 0Q4        -0.3942
     31 CB         -0.9770   17.4800   30.7780 C.3       1 0Q4         0.0214
     32 CG         -2.1030   17.1740   29.8710 C.ar      1 0Q4        -0.0386
     33 CD1        -2.5970   15.8810   29.7660 C.ar      1 0Q4        -0.0601
     34 CD2        -2.7080   18.1840   29.1300 C.ar      1 0Q4        -0.0601
     35 CE1        -3.7030   15.5880   28.9350 C.ar      1 0Q4        -0.0686
     36 CE2        -3.8230   17.9050   28.2830 C.ar      1 0Q4        -0.0686
     37 CZ         -4.3160   16.6040   28.1940 C.ar      1 0Q4        -0.0687
     38 N          -3.6150   17.1340   33.1380 N.am      1 0Q4        -0.2635
     39 CA         -4.7260   16.3560   33.6930 C.3       1 0Q4         0.1325
     40 C          -6.1110   16.6730   33.1200 C.2       1 0Q4         0.2040
     41 O          -6.5340   17.8280   33.0350 O.2       1 0Q4        -0.3944
     42 CB         -4.7490   16.5280   35.2380 C.3       1 0Q4        -0.0008
     43 CG         -5.7820   15.7320   36.0120 C.3       1 0Q4         0.0044
     44 CD         -7.1330   16.4530   36.1330 C.2       1 0Q4         0.0350
     45 OE1        -7.1410   17.6570   36.4500 O.co2     1 0Q4        -0.5690
     46 OE2        -8.2040   15.8290   35.9100 O.co2     1 0Q4        -0.5690
     47 N          -6.8780   15.6240   32.8750 N.am      1 0Q4        -0.2640
     48 CA         -8.2070   15.7870   32.3260 C.3       1 0Q4         0.1282
     49 C          -9.2930   14.8000   32.8230 C.2       1 0Q4         0.2036
     50 O          -9.0260   13.6350   33.1250 O.2       1 0Q4        -0.3944
     51 CB         -8.1140   15.7090   30.8140 C.3       1 0Q4        -0.0244
     52 N         -10.5260   15.2950   32.8400 N.am      1 0Q4        -0.2637
     53 CA        -11.7100   14.5220   33.1910 C.3       1 0Q4         0.1306
     54 C         -11.7480   13.3340   32.2150 C.2       1 0Q4         0.1992
     55 O         -11.8750   12.1520   32.6500 O.2       1 0Q4        -0.3947
     56 CB        -12.9640   15.4120   32.9920 C.3       1 0Q4        -0.0124
     57 CG        -14.3140   14.6970   32.6330 C.3       1 0Q4        -0.0491
     58 CD        -14.5790   14.5300   31.0850 C.3       1 0Q4        -0.0557
     59 CE        -15.6820   13.5240   30.8280 C.3       1 0Q4        -0.0653
     60 N         -11.6130   13.6100   30.9970 N.am      1 0Q4        -0.2990
     61 H1          9.7622   15.4890   33.9331 H         1 0Q4         0.2015
     62 H2          9.2197   17.0273   33.7120 H         1 0Q4         0.2015
     63 H3          8.9092   15.8743   32.5790 H         1 0Q4         0.2015
     64 H4          7.4980   14.6475   34.0790 H         1 0Q4         0.1098
     65 H5          8.0722   16.9661   35.9656 H         1 0Q4         0.0347
     66 H6          8.8454   15.3479   36.0661 H         1 0Q4         0.0347
     67 H7          5.8448   15.3980   36.1213 H         1 0Q4         0.0302
     68 H8          6.6828   16.1079   37.5427 H         1 0Q4         0.0302
     69 H9          7.6580   13.4039   36.6929 H         1 0Q4         0.0689
     70 H10         5.9701   13.4596   37.3050 H         1 0Q4         0.0689
     71 H11         8.3905   13.5514   38.8647 H         1 0Q4         0.2642
     72 H12         5.0208   15.2084   40.4149 H         1 0Q4         0.2615
     73 H13         5.1338   14.9001   38.6614 H         1 0Q4         0.2615
     74 H14         8.3031   14.0750   41.1085 H         1 0Q4         0.2615
     75 H15         6.8525   14.8823   41.7615 H         1 0Q4         0.2615
     76 H16         5.4320   14.9475   33.4064 H         1 0Q4         0.1885
     77 H17         4.4799   17.6969   32.8202 H         1 0Q4         0.0802
     78 H18         4.3322   15.2821   30.8937 H         1 0Q4         0.0343
     79 H19         3.1344   16.7885   29.3236 H         1 0Q4         0.0234
     80 H20         3.0860   18.0662   30.5852 H         1 0Q4         0.0234
     81 H21         2.1882   16.5295   30.8283 H         1 0Q4         0.0234
     82 H22         6.4842   16.5707   30.8827 H         1 0Q4         0.0234
     83 H23         5.5648   18.0825   30.5731 H         1 0Q4         0.0234
     84 H24         5.5790   16.7723   29.3444 H         1 0Q4         0.0234
     85 H25         2.9808   18.0426   34.2934 H         1 0Q4         0.1883
     86 H26         1.2045   15.8197   35.0117 H         1 0Q4         0.0800
     87 H27         0.6968   16.9728   37.0283 H         1 0Q4         0.0315
     88 H28         1.3833   18.5118   36.4062 H         1 0Q4         0.0315
     89 H29         3.6482   17.5194   36.4390 H         1 0Q4         0.0298
     90 H30         3.9922   17.3425   38.8776 H         1 0Q4         0.0232
     91 H31         2.2175   17.2033   39.1173 H         1 0Q4         0.0232
     92 H32         2.9180   18.7181   38.4530 H         1 0Q4         0.0232
     93 H33         2.9524   15.1726   36.0490 H         1 0Q4         0.0232
     94 H34         2.3067   15.0996   37.7236 H         1 0Q4         0.0232
     95 H35         4.0665   15.3326   37.4489 H         1 0Q4         0.0232
     96 H36         0.6153   16.7657   32.5543 H         1 0Q4         0.1885
     97 H37        -1.6499   18.5923   32.5200 H         1 0Q4         0.0823
     98 H38        -0.2175   16.6940   30.6541 H         1 0Q4         0.0474
     99 H39        -0.5532   18.4499   30.4786 H         1 0Q4         0.0474
    100 H40        -2.1275   15.0832   30.3300 H         1 0Q4         0.0557
    101 H41        -2.3276   19.1969   29.1966 H         1 0Q4         0.0557
    102 H42        -4.0772   14.5726   28.8719 H         1 0Q4         0.0599
    103 H43        -4.2846   18.7019   27.7112 H         1 0Q4         0.0599
    104 H44        -5.1650   16.3821   27.5576 H         1 0Q4         0.0559
    105 H45        -3.7346   18.1200   33.0216 H         1 0Q4         0.1883
    106 H46        -4.5214   15.2989   33.4681 H         1 0Q4         0.0801
    107 H47        -4.9266   17.5928   35.4492 H         1 0Q4         0.0330
    108 H48        -3.7576   16.2393   35.6172 H         1 0Q4         0.0330
    109 H49        -5.3934   15.5450   37.0239 H         1 0Q4         0.0433
    110 H50        -5.9421   14.7730   35.4976 H         1 0Q4         0.0433
    111 H51        -6.5349   14.7055   33.0718 H         1 0Q4         0.1883
    112 H52        -8.5457   16.7965   32.6019 H         1 0Q4         0.0797
    113 H53        -9.1166   15.8310   30.3782 H         1 0Q4         0.0277
    114 H54        -7.7038   14.7311   30.5218 H         1 0Q4         0.0277
    115 H55        -7.4543   16.5083   30.4455 H         1 0Q4         0.0277
    116 H56       -10.6488   16.2572   32.5969 H         1 0Q4         0.1883
    117 H57       -11.6559   14.1693   34.2315 H         1 0Q4         0.0800
    118 H58       -12.7401   16.1189   32.1795 H         1 0Q4         0.0312
    119 H59       -13.1248   15.9677   33.9276 H         1 0Q4         0.0312
    120 H60       -15.1385   15.2864   33.0604 H         1 0Q4         0.0267
    121 H61       -14.3039   13.6961   33.0891 H         1 0Q4         0.0267
    122 H62       -13.6558   14.1838   30.5974 H         1 0Q4         0.0263
    123 H63       -14.8738   15.5024   30.6636 H         1 0Q4         0.0263
    124 H64       -15.8452   13.4277   29.7444 H         1 0Q4         0.0230
    125 H65       -16.6099   13.8662   31.3095 H         1 0Q4         0.0230
    126 H66       -15.3918   12.5476   31.2433 H         1 0Q4         0.0230
    127 H67       -11.6291   12.8797   30.3141 H         1 0Q4         0.1815
    128 H68       -11.4894   14.5600   30.7103 H         1 0Q4         0.1815
@<TRIPOS>BOND
     1    3    2 1  
     2    2    5 1  
     3    2    1 1  
     4    5    6 1  
     5    6    7 1  
     6    7    8 1  
     7    8    9 ar 
     8    9   10 ar 
     9    9   11 ar 
    10    3    4 2  
    11   14   13 1  
    12   13   16 1  
    13   13   12 1  
    14   16   17 1  
    15   16   18 1  
    16   14   15 2  
    17   21   20 1  
    18   20   23 1  
    19   20   19 1  
    20   23   24 1  
    21   24   26 1  
    22   24   25 1  
    23   21   22 2  
    24   29   28 1  
    25   28   31 1  
    26   28   27 1  
    27   31   32 1  
    28   32   34 ar 
    29   32   33 ar 
    30   33   35 ar 
    31   35   37 ar 
    32   36   37 ar 
    33   34   36 ar 
    34   29   30 2  
    35   40   39 1  
    36   39   42 1  
    37   39   38 1  
    38   42   43 1  
    39   43   44 1  
    40   44   45 ar 
    41   44   46 ar 
    42   40   41 2  
    43   49   48 1  
    44   48   51 1  
    45   48   47 1  
    46   49   50 2  
    47   52   53 1  
    48   53   56 1  
    49   53   54 1  
    50   54   55 2  
    51   56   57 1  
    52   57   58 1  
    53   58   59 1  
    54   12    3 am 
    55   19   14 am 
    56   27   21 am 
    57   38   29 am 
    58   47   40 am 
    59   49   52 am 
    60   54   60 am 
    61    1   61 1  
    62    1   62 1  
    63    1   63 1  
    64    2   64 1  
    65    5   65 1  
    66    5   66 1  
    67    6   67 1  
    68    6   68 1  
    69    7   69 1  
    70    7   70 1  
    71    8   71 1  
    72   10   72 1  
    73   10   73 1  
    74   11   74 1  
    75   11   75 1  
    76   12   76 1  
    77   13   77 1  
    78   16   78 1  
    79   17   79 1  
    80   17   80 1  
    81   17   81 1  
    82   18   82 1  
    83   18   83 1  
    84   18   84 1  
    85   19   85 1  
    86   20   86 1  
    87   23   87 1  
    88   23   88 1  
    89   24   89 1  
    90   25   90 1  
    91   25   91 1  
    92   25   92 1  
    93   26   93 1  
    94   26   94 1  
    95   26   95 1  
    96   27   96 1  
    97   28   97 1  
    98   31   98 1  
    99   31   99 1  
   100   33  100 1  
   101   34  101 1  
   102   35  102 1  
   103   36  103 1  
   104   37  104 1  
   105   38  105 1  
   106   39  106 1  
   107   42  107 1  
   108   42  108 1  
   109   43  109 1  
   110   43  110 1  
   111   47  111 1  
   112   48  112 1  
   113   51  113 1  
   114   51  114 1  
   115   51  115 1  
   116   52  116 1  
   117   53  117 1  
   118   56  118 1  
   119   56  119 1  
   120   57  120 1  
   121   57  121 1  
   122   58  122 1  
   123   58  123 1  
   124   59  124 1  
   125   59  125 1  
   126   59  126 1  
   127   60  127 1  
   128   60  128 1  
@<TRIPOS>SUBSTRUCTURE
     1 0Q4         1

