### 
### Created by X-TOOL on Mon Sep 10 21:12:44 2018
### 

@<TRIPOS>MOLECULE
1bap_ligand
   20    20     1     0     0
SMALL
GAST_HUCK


@<TRIPOS>ATOM
      1 C1         14.3640   56.8380   55.1890 C.3       1 ARB         0.1850
      2 C2         12.9110   57.1690   54.8300 C.3       1 ARB         0.1339
      3 C3         12.4400   56.2570   53.7020 C.3       1 ARB         0.1137
      4 C4         13.3660   56.4000   52.4950 C.3       1 ARB         0.1069
      5 C5         14.7910   56.1060   52.9230 C.3       1 ARB         0.0792
      6 O1         14.4030   55.5460   55.7260 O.3       1 ARB        -0.3649
      7 O2         12.0680   57.0900   55.9750 O.3       1 ARB        -0.3841
      8 O3         11.0980   56.5510   53.3130 O.3       1 ARB        -0.3864
      9 O4         13.2490   57.6710   51.8650 O.3       1 ARB        -0.3869
     10 O5         15.1900   56.9680   54.0210 O.3       1 ARB        -0.3462
     11 H1         14.7210   57.5478   55.9498 H         1 ARB         0.0935
     12 H2         12.8771   58.2054   54.4630 H         1 ARB         0.0671
     13 H3         12.4794   55.2168   54.0575 H         1 ARB         0.0647
     14 H4         13.0724   55.6414   51.7546 H         1 ARB         0.0643
     15 H5         15.4652   56.2737   52.0701 H         1 ARB         0.0587
     16 H6         14.8612   55.0566   53.2451 H         1 ARB         0.0587
     17 H7         15.2958   55.3330   55.9711 H         1 ARB         0.2126
     18 H8         11.1856   57.3482   55.7356 H         1 ARB         0.2101
     19 H9         10.5246   56.4613   54.0651 H         1 ARB         0.2100
     20 H10        12.3446   57.8163   51.6131 H         1 ARB         0.2100
@<TRIPOS>BOND
     1    1    2 1  
     2    1    6 1  
     3    1   10 1  
     4    2    3 1  
     5    2    7 1  
     6    3    4 1  
     7    3    8 1  
     8    4    5 1  
     9    4    9 1  
    10    5   10 1  
    11    1   11 1  
    12    2   12 1  
    13    3   13 1  
    14    4   14 1  
    15    5   15 1  
    16    5   16 1  
    17    6   17 1  
    18    7   18 1  
    19    8   19 1  
    20    9   20 1  
@<TRIPOS>SUBSTRUCTURE
     1 ARB         1

