### 
### Created by X-TOOL on Mon Sep 10 21:12:46 2018
### 

@<TRIPOS>MOLECULE
1bb0_ligand
   72    74     1     0     0
SMALL
GAST_HUCK


@<TRIPOS>ATOM
      1 C          18.4750  -17.0660   26.1510 C.3       1 0IV         0.1181
      2 C1         19.7430  -16.2770   26.0710 C.ar      1 0IV        -0.0204
      3 C2         19.6430  -14.9080   26.2530 C.ar      1 0IV        -0.0587
      4 C3         20.7650  -14.1190   25.9670 C.ar      1 0IV        -0.0685
      5 C4         21.8960  -14.6380   25.3580 C.ar      1 0IV        -0.0687
      6 C5         21.9440  -16.0070   25.1040 C.ar      1 0IV        -0.0685
      7 C6         20.9050  -16.8210   25.5490 C.ar      1 0IV        -0.0587
      8 S          17.8250  -17.6630   24.6010 S.o2      1 0IV         0.0511
      9 O1S        16.5590  -18.1930   24.9700 O.2       1 0IV        -0.1532
     10 O2S        18.7900  -18.3260   23.7910 O.2       1 0IV        -0.1532
     11 N          17.4920  -16.3810   23.6000 N.am      1 0IV        -0.2281
     12 CA         18.4820  -15.7300   22.8430 C.3       1 0IV         0.1265
     13 CB         19.1620  -16.4910   21.7530 C.3       1 0IV        -0.0141
     14 CG         20.1430  -15.6500   20.9750 C.3       1 0IV        -0.0285
     15 C          17.9000  -14.3990   22.3120 C.2       1 0IV         0.2023
     16 CD         19.7760  -14.2200   20.6820 C.3       1 0IV         0.0367
     17 O          16.9460  -13.9800   22.9600 O.2       1 0IV        -0.3946
     18 N          18.6560  -13.7130   21.4880 N.am      1 0IV        -0.2529
     19 CA         18.1290  -12.3510   21.4180 C.3       1 0IV         0.1227
     20 C          16.8320  -12.7310   20.6150 C.2       1 0IV         0.1990
     21 O          16.7940  -13.6380   19.7430 O.2       1 0IV        -0.3948
     22 C2         11.6690  -13.8310   21.5510 C.3       1 0IV        -0.0193
     23 C3         12.2190  -13.8810   23.1160 C.3       1 0IV         0.0649
     24 N          15.8250  -11.7010   20.5730 N.am      1 0IV        -0.2800
     25 CA         14.6260  -11.6790   19.8100 C.3       1 0IV         0.0655
     26 C          14.7720  -11.1810   18.4660 C.3       1 0IV         0.0671
     27 O          13.9280  -10.6470   17.5260 O.3       1 0IV        -0.3927
     28 CB         13.6810  -10.9870   20.6100 C.3       1 0IV        -0.0217
     29 CZ         11.2960  -11.9580   24.5990 C.cat     1 0IV         0.2903
     30 NE         12.2760  -12.3890   23.7370 N.pl3     1 0IV        -0.2595
     31 C1         12.9020  -13.0670   20.6870 C.3       1 0IV        -0.0438
     32 CG         12.6450  -11.6780   21.3270 C.3       1 0IV        -0.0055
     33 CD         13.0430  -11.6160   22.8430 C.3       1 0IV         0.0677
     34 NH1        11.0470  -10.6820   24.7320 N.pl3     1 0IV        -0.2848
     35 NH2        10.5620  -12.7380   25.2420 N.pl3     1 0IV        -0.2848
     36 H1         17.7089  -16.4256   26.6126 H         1 0IV         0.0682
     37 H2         18.6613  -17.9377   26.7956 H         1 0IV         0.0682
     38 H3         18.7220  -14.4590   26.6070 H         1 0IV         0.0557
     39 H4         20.7475  -13.0678   26.2310 H         1 0IV         0.0599
     40 H5         22.7242  -13.9939   25.0855 H         1 0IV         0.0559
     41 H6         22.7819  -16.4346   24.5653 H         1 0IV         0.0599
     42 H7         21.0075  -17.8983   25.4857 H         1 0IV         0.0557
     43 H8         16.5479  -16.0583   23.5327 H         1 0IV         0.1703
     44 H9         19.2796  -15.4735   23.5558 H         1 0IV         0.0753
     45 H10        18.3971  -16.8701   21.0594 H         1 0IV         0.0309
     46 H11        19.7030  -17.3377   22.2006 H         1 0IV         0.0309
     47 H12        20.3068  -16.1495   20.0087 H         1 0IV         0.0287
     48 H13        21.0840  -15.6354   21.5444 H         1 0IV         0.0287
     49 H14        19.4999  -14.1444   19.6199 H         1 0IV         0.0524
     50 H15        20.6561  -13.5899   20.8778 H         1 0IV         0.0524
     51 H16        18.7883  -11.6662   20.8646 H         1 0IV         0.0765
     52 H17        17.9086  -11.9271   22.4088 H         1 0IV         0.0765
     53 H18        10.7350  -13.2536   21.4864 H         1 0IV         0.0299
     54 H19        11.4989  -14.8477   21.1670 H         1 0IV         0.0299
     55 H20        13.2274  -14.3200   23.1327 H         1 0IV         0.0690
     56 H21        11.5395  -14.5001   23.7202 H         1 0IV         0.0690
     57 H22        15.9902  -10.9029   21.1524 H         1 0IV         0.1855
     58 H23        14.2773  -12.7172   19.7077 H         1 0IV         0.0579
     59 H24        15.2098  -12.0401   17.9367 H         1 0IV         0.0580
     60 H25        15.5327  -10.3949   18.5814 H         1 0IV         0.0580
     61 H26        13.5295   -9.8572   17.8721 H         1 0IV         0.2095
     62 H27        13.1728  -10.2759   19.9421 H         1 0IV         0.0292
     63 H28        14.2607  -10.4328   21.3629 H         1 0IV         0.0292
     64 H29        12.7390  -13.0786   19.5992 H         1 0IV         0.0270
     65 H30        13.9009  -13.4687   20.9124 H         1 0IV         0.0270
     66 H31        11.6268  -11.2972   21.1592 H         1 0IV         0.0335
     67 H32        14.0874  -11.9511   22.9260 H         1 0IV         0.0693
     68 H33        12.9682  -10.5663   23.1632 H         1 0IV         0.0693
     69 H34        10.3113  -10.3656   25.3797 H         1 0IV         0.2615
     70 H35        11.5865   -9.9927   24.1891 H         1 0IV         0.2615
     71 H36        10.7099  -13.7553   25.1773 H         1 0IV         0.2615
     72 H37         9.8089  -12.3638   25.8368 H         1 0IV         0.2615
@<TRIPOS>BOND
     1    1    2 1  
     2    8    1 1  
     3    2    3 ar 
     4    2    7 ar 
     5    3    4 ar 
     6    4    5 ar 
     7    6    5 ar 
     8    7    6 ar 
     9    8    9 2  
    10    8   10 2  
    11   11    8 am 
    12   12   11 1  
    13   12   13 1  
    14   15   12 1  
    15   14   13 1  
    16   16   14 1  
    17   15   17 2  
    18   18   15 am 
    19   18   16 1  
    20   19   18 1  
    21   20   19 1  
    22   20   21 2  
    23   24   20 am 
    24   22   23 1  
    25   31   22 1  
    26   23   30 1  
    27   25   24 1  
    28   25   26 1  
    29   28   25 1  
    30   26   27 1  
    31   32   28 1  
    32   30   29 ar 
    33   29   34 ar 
    34   29   35 ar 
    35   30   33 1  
    36   31   32 1  
    37   32   33 1  
    38    1   36 1  
    39    1   37 1  
    40    3   38 1  
    41    4   39 1  
    42    5   40 1  
    43    6   41 1  
    44    7   42 1  
    45   11   43 1  
    46   12   44 1  
    47   13   45 1  
    48   13   46 1  
    49   14   47 1  
    50   14   48 1  
    51   16   49 1  
    52   16   50 1  
    53   19   51 1  
    54   19   52 1  
    55   22   53 1  
    56   22   54 1  
    57   23   55 1  
    58   23   56 1  
    59   24   57 1  
    60   25   58 1  
    61   26   59 1  
    62   26   60 1  
    63   27   61 1  
    64   28   62 1  
    65   28   63 1  
    66   31   64 1  
    67   31   65 1  
    68   32   66 1  
    69   33   67 1  
    70   33   68 1  
    71   34   69 1  
    72   34   70 1  
    73   35   71 1  
    74   35   72 1  
@<TRIPOS>SUBSTRUCTURE
     1 0IV         1

