### 
### Created by X-TOOL on Mon Sep 10 21:12:44 2018
### 

@<TRIPOS>MOLECULE
1bcd_ligand
   10     9     1     0     0
SMALL
GAST_HUCK


@<TRIPOS>ATOM
      1 C          -6.5640    1.6460   17.4020 C.3       1 FMS         0.5379
      2 F1         -7.6990    1.3040   16.9150 F         1 FMS        -0.1491
      3 F2         -6.5680    3.0110   17.3310 F         1 FMS        -0.1491
      4 F3         -6.3360    1.1890   18.5890 F         1 FMS        -0.1491
      5 S          -5.2870    1.1360   16.3120 S.o2      1 FMS         0.1346
      6 N          -5.1990   -0.4760   16.1990 N.am      1 FMS        -0.2576
      7 O1         -3.9940    1.5610   16.8260 O.2       1 FMS        -0.1471
      8 O2         -5.6450    1.7270   15.0180 O.2       1 FMS        -0.1471
      9 H1         -4.5116   -0.8991   15.6087 H         1 FMS         0.1634
     10 H2         -5.8320   -1.0490   16.7195 H         1 FMS         0.1634
@<TRIPOS>BOND
     1    1    5 1  
     2    1    4 1  
     3    1    3 1  
     4    1    2 1  
     5    5    8 2  
     6    5    7 2  
     7    5    6 am 
     8    6    9 1  
     9    6   10 1  
@<TRIPOS>SUBSTRUCTURE
     1 FMS         1

