### 
### Created by X-TOOL on Fri Nov 18 12:21:08 2016
### 

@<TRIPOS>MOLECULE
1bcj_ligand
   30    30     1     0     0
SMALL
GAST_HUCK


@<TRIPOS>ATOM
      1 C1         48.0370   -3.1700   21.2800 C.3       1 NGA         0.1823
      2 C2         46.5930   -3.1570   21.8130 C.3       1 NGA         0.1208
      3 C3         46.5410   -3.9110   23.1570 C.3       1 NGA         0.1110
      4 C4         47.1420   -5.3110   23.0070 C.3       1 NGA         0.1116
      5 C5         48.5440   -5.2160   22.3930 C.3       1 NGA         0.1130
      6 C6         49.1810   -6.5670   22.1330 C.3       1 NGA         0.0730
      7 C7         45.4850   -1.1490   21.0440 C.2       1 NGA         0.1733
      8 C8         45.0800    0.2870   21.3510 C.3       1 NGA         0.0257
      9 N2         46.1600   -1.7860   21.9970 N.am      1 NGA        -0.2766
     10 O1         48.0910   -2.5600   20.0400 O.3       1 NGA        -0.3651
     11 O3         45.2020   -4.0180   23.6140 O.3       1 NGA        -0.3867
     12 O4         46.3060   -6.1070   22.1810 O.3       1 NGA        -0.3865
     13 O5         48.4880   -4.5190   21.1290 O.3       1 NGA        -0.3410
     14 O6         50.5990   -6.4830   22.1910 O.3       1 NGA        -0.3924
     15 O7         45.1780   -1.6630   19.9620 O.2       1 NGA        -0.3974
     16 H1         48.6906   -2.6359   21.9853 H         1 NGA         0.0932
     17 H2         45.9302   -3.6544   21.0897 H         1 NGA         0.0633
     18 H3         47.1269   -3.3494   23.8995 H         1 NGA         0.0645
     19 H4         47.2161   -5.7783   24.0000 H         1 NGA         0.0647
     20 H5         49.1838   -4.6543   23.0895 H         1 NGA         0.0647
     21 H6         48.8824   -6.9190   21.1346 H         1 NGA         0.0584
     22 H7         48.8319   -7.2813   22.8932 H         1 NGA         0.0584
     23 H8         44.5317    0.7046   20.4937 H         1 NGA         0.0467
     24 H9         45.9807    0.8898   21.5390 H         1 NGA         0.0467
     25 H10        44.4351    0.3036   22.2419 H         1 NGA         0.0467
     26 H11        46.3716   -1.3125   22.8520 H         1 NGA         0.1857
     27 H12        47.5296   -3.0282   19.4333 H         1 NGA         0.2126
     28 H13        45.1873   -4.4842   24.4416 H         1 NGA         0.2100
     29 H14        46.6840   -6.9741   22.0917 H         1 NGA         0.2100
     30 H15        50.8623   -6.1828   23.0530 H         1 NGA         0.2095
@<TRIPOS>BOND
     1    1   13 1  
     2    1   10 1  
     3    1    2 1  
     4    2    9 1  
     5    2    3 1  
     6    3   11 1  
     7    3    4 1  
     8    4   12 1  
     9    4    5 1  
    10    5   13 1  
    11    5    6 1  
    12    6   14 1  
    13    9    7 am 
    14    7   15 2  
    15    7    8 1  
    16    1   16 1  
    17    2   17 1  
    18    3   18 1  
    19    4   19 1  
    20    5   20 1  
    21    6   21 1  
    22    6   22 1  
    23    8   23 1  
    24    8   24 1  
    25    8   25 1  
    26    9   26 1  
    27   10   27 1  
    28   11   28 1  
    29   12   29 1  
    30   14   30 1  
@<TRIPOS>SUBSTRUCTURE
     1 NGA         1

