### 
### Created by X-TOOL on Mon Sep 10 21:12:46 2018
### 

@<TRIPOS>MOLECULE
1bdl_ligand
   81    83     1     0     0
SMALL
GAST_HUCK


@<TRIPOS>ATOM
      1 C1        -13.6500   15.0960   42.0230 C.3       1 IM1         0.0905
      2 C2        -13.0110   16.2490   42.7830 C.3       1 IM1        -0.0320
      3 C3        -14.5580   14.3960   43.0250 C.3       1 IM1        -0.0320
      4 C4        -14.5160   15.6670   40.9040 C.3       1 IM1        -0.0320
      5 O5        -12.6090   14.2160   41.6550 O.3       1 IM1        -0.2581
      6 C6        -12.3090   13.6110   40.4230 C.2       1 IM1         0.3204
      7 O7        -11.1620   13.7590   39.9980 O.2       1 IM1        -0.3775
      8 N8        -13.1870   12.9030   39.7080 N.am      1 IM1        -0.2550
      9 C9        -12.8170   12.2760   38.4290 C.3       1 IM1         0.0794
     10 C10       -13.9030   11.2450   38.0990 C.3       1 IM1         0.0064
     11 C11       -13.4030    9.8120   38.2280 C.ar      1 IM1        -0.0408
     12 C12       -14.0170    8.8020   37.4810 C.ar      1 IM1        -0.0603
     13 C13       -13.5710    7.4880   37.6000 C.ar      1 IM1        -0.0686
     14 C14       -12.5130    7.1850   38.4560 C.ar      1 IM1        -0.0687
     15 C15       -11.9010    8.1870   39.2070 C.ar      1 IM1        -0.0686
     16 C16       -12.3420    9.5010   39.0930 C.ar      1 IM1        -0.0603
     17 C17       -12.4860   13.1280   37.1410 C.3       1 IM1         0.0823
     18 O18       -11.2820   12.5710   36.5960 O.3       1 IM1        -0.3892
     19 C19       -13.5780   13.1830   36.0370 C.3       1 IM1        -0.0029
     20 C20       -13.1420   13.2530   34.5700 C.3       1 IM1         0.0607
     21 C21       -14.4070   13.0000   33.7130 C.3       1 IM1         0.0007
     22 C22       -14.2220   13.1810   32.2030 C.ar      1 IM1        -0.0405
     23 C23       -14.8930   14.2080   31.5350 C.ar      1 IM1        -0.0602
     24 C24       -14.7020   14.3900   30.1680 C.ar      1 IM1        -0.0686
     25 C25       -13.8480   13.5420   29.4700 C.ar      1 IM1        -0.0687
     26 C26       -13.1750   12.5190   30.1290 C.ar      1 IM1        -0.0686
     27 C27       -13.3650   12.3340   31.4920 C.ar      1 IM1        -0.0602
     28 C28       -12.4650   14.5780   34.2000 C.2       1 IM1         0.1836
     29 O29       -12.8250   15.6470   34.7020 O.2       1 IM1        -0.3964
     30 N30       -11.4980   14.5200   33.2920 N.am      1 IM1        -0.2660
     31 C31       -10.7480   15.6810   32.7980 C.3       1 IM1         0.1193
     32 C32        -9.3160   15.7850   33.4010 C.3       1 IM1        -0.0078
     33 C34        -9.3890   15.8910   34.9160 C.3       1 IM1        -0.0583
     34 C35       -10.6210   15.4560   31.2890 C.2       1 IM1         0.1379
     35 N36        -9.7840   14.5510   30.8120 N.pl3     1 IM1        -0.2628
     36 C37        -9.9720   14.5780   29.4460 C.2       1 IM1         0.0252
     37 C38       -10.9460   15.5330   29.1670 C.2       1 IM1        -0.0367
     38 N39       -11.3380   16.0690   30.3710 N.2       1 IM1        -0.3371
     39 H1        -13.7901   16.9622   43.0902 H         1 IM1         0.0260
     40 H2        -12.2836   16.7579   42.1335 H         1 IM1         0.0260
     41 H3        -12.4974   15.8605   43.6748 H         1 IM1         0.0260
     42 H4        -15.0555   13.5450   42.5368 H         1 IM1         0.0260
     43 H5        -15.3166   15.1042   43.3896 H         1 IM1         0.0260
     44 H6        -13.9579   14.0330   43.8724 H         1 IM1         0.0260
     45 H7        -13.8760   16.1774   40.1692 H         1 IM1         0.0260
     46 H8        -15.2342   16.3853   41.3263 H         1 IM1         0.0260
     47 H9        -15.0621   14.8500   40.4097 H         1 IM1         0.0260
     48 H10       -14.1204   12.7961   40.0506 H         1 IM1         0.1873
     49 H11       -11.8895   11.7238   38.6407 H         1 IM1         0.0604
     50 H12       -14.2429   11.4086   37.0657 H         1 IM1         0.0449
     51 H13       -14.7471   11.3879   38.7897 H         1 IM1         0.0449
     52 H14       -14.8362    9.0406   36.8124 H         1 IM1         0.0557
     53 H15       -14.0467    6.7004   37.0268 H         1 IM1         0.0599
     54 H16       -12.1637    6.1621   38.5381 H         1 IM1         0.0559
     55 H17       -11.0846    7.9431   39.8772 H         1 IM1         0.0599
     56 H18       -11.8667   10.2847   39.6718 H         1 IM1         0.0557
     57 H19       -12.2958   14.1629   37.4615 H         1 IM1         0.0619
     58 H20       -11.0380   13.0515   35.8136 H         1 IM1         0.2099
     59 H21       -14.1926   14.0737   36.2343 H         1 IM1         0.0320
     60 H22       -14.1955   12.2795   36.1478 H         1 IM1         0.0320
     61 H23       -12.4181   12.4464   34.3821 H         1 IM1         0.0561
     62 H24       -15.1883   13.6991   34.0458 H         1 IM1         0.0453
     63 H25       -14.7385   11.9668   33.8932 H         1 IM1         0.0453
     64 H26       -15.5623   14.8631   32.0808 H         1 IM1         0.0557
     65 H27       -15.2172   15.1901   29.6490 H         1 IM1         0.0599
     66 H28       -13.7061   13.6798   28.4042 H         1 IM1         0.0559
     67 H29       -12.5041   11.8679   29.5803 H         1 IM1         0.0599
     68 H30       -12.8483   11.5317   32.0062 H         1 IM1         0.0557
     69 H31       -11.2643   13.6223   32.9185 H         1 IM1         0.1887
     70 H32       -11.3021   16.6065   33.0131 H         1 IM1         0.0796
     71 C5         -8.6165   17.0357   32.8370 C.3       1 IM1        -0.0583
     72 H33        -8.7407   14.8884   33.1271 H         1 IM1         0.0345
     73 H34        -8.3716   15.9637   35.3279 H         1 IM1         0.0235
     74 H35        -9.8862   14.9980   35.3225 H         1 IM1         0.0235
     75 H36        -9.9619   16.7880   35.1936 H         1 IM1         0.0235
     76 H37        -9.1335   13.9557   31.3442 H         1 IM1         0.2372
     77 H38        -9.4509   13.9615   28.7150 H         1 IM1         0.0794
     78 H39       -11.3251   15.8038   28.1827 H         1 IM1         0.0408
     79 H40        -8.5620   16.9623   31.7408 H         1 IM1         0.0235
     80 H41        -7.5997   17.1052   33.2508 H         1 IM1         0.0235
     81 H42        -9.1882   17.9330   33.1164 H         1 IM1         0.0235
@<TRIPOS>BOND
     1    1    2 1  
     2    1    3 1  
     3    1    4 1  
     4    1    5 1  
     5    5    6 1  
     6    6    7 2  
     7    6    8 am 
     8    8    9 1  
     9    9   10 1  
    10    9   17 1  
    11   10   11 1  
    12   11   12 ar 
    13   11   16 ar 
    14   12   13 ar 
    15   13   14 ar 
    16   14   15 ar 
    17   15   16 ar 
    18   17   18 1  
    19   17   19 1  
    20   19   20 1  
    21   20   21 1  
    22   20   28 1  
    23   21   22 1  
    24   22   23 ar 
    25   22   27 ar 
    26   23   24 ar 
    27   24   25 ar 
    28   25   26 ar 
    29   26   27 ar 
    30   28   29 2  
    31   28   30 am 
    32   30   31 1  
    33   31   32 1  
    34   31   34 1  
    35   32   33 1  
    36   34   35 1  
    37   34   38 2  
    38   35   36 1  
    39   36   37 2  
    40   37   38 1  
    41    2   39 1  
    42    2   40 1  
    43    2   41 1  
    44    3   42 1  
    45    3   43 1  
    46    3   44 1  
    47    4   45 1  
    48    4   46 1  
    49    4   47 1  
    50    8   48 1  
    51    9   49 1  
    52   10   50 1  
    53   10   51 1  
    54   12   52 1  
    55   13   53 1  
    56   14   54 1  
    57   15   55 1  
    58   16   56 1  
    59   17   57 1  
    60   18   58 1  
    61   19   59 1  
    62   19   60 1  
    63   20   61 1  
    64   21   62 1  
    65   21   63 1  
    66   23   64 1  
    67   24   65 1  
    68   25   66 1  
    69   26   67 1  
    70   27   68 1  
    71   30   69 1  
    72   31   70 1  
    73   32   71 1  
    74   32   72 1  
    75   33   73 1  
    76   33   74 1  
    77   33   75 1  
    78   35   76 1  
    79   36   77 1  
    80   37   78 1  
    81   71   79 1  
    82   71   80 1  
    83   71   81 1  
@<TRIPOS>SUBSTRUCTURE
     1 IM1         1

