### 
### Created by X-TOOL on Mon Sep 10 21:12:46 2018
### 

@<TRIPOS>MOLECULE
1bdr_ligand
   81    83     1     0     0
SMALL
GAST_HUCK


@<TRIPOS>ATOM
      1 C1         -9.8070   15.3220   33.3160 C.3       1 IM1         0.0905
      2 C2         -9.6100   13.8200   33.4420 C.3       1 IM1        -0.0320
      3 C3         -8.4700   16.0600   33.3520 C.3       1 IM1        -0.0320
      4 C4        -10.6140   15.7290   34.5360 C.3       1 IM1        -0.0320
      5 O5        -10.5930   15.6350   32.2000 O.3       1 IM1        -0.2581
      6 C6        -10.2920   15.3650   30.8580 C.2       1 IM1         0.3204
      7 O7         -9.2790   14.7630   30.5140 O.2       1 IM1        -0.3775
      8 N8        -11.1550   15.7980   29.9440 N.am      1 IM1        -0.2550
      9 C9        -10.9860   15.6030   28.5060 C.3       1 IM1         0.0794
     10 C10       -12.3440   15.2230   27.9240 C.3       1 IM1         0.0064
     11 C11       -12.8150   13.9680   28.6100 C.ar      1 IM1        -0.0408
     12 C12       -12.3310   12.7330   28.1900 C.ar      1 IM1        -0.0603
     13 C13       -12.6990   11.5860   28.8860 C.ar      1 IM1        -0.0686
     14 C14       -13.5380   11.6830   29.9920 C.ar      1 IM1        -0.0687
     15 C15       -14.0300   12.9210   30.4110 C.ar      1 IM1        -0.0686
     16 C16       -13.6690   14.0720   29.7150 C.ar      1 IM1        -0.0603
     17 C17       -10.3880   16.8070   27.7260 C.3       1 IM1         0.0823
     18 O18       -11.0810   18.0460   28.0080 O.3       1 IM1        -0.3892
     19 C19        -8.9680   17.0680   28.0790 C.3       1 IM1        -0.0029
     20 C20        -8.2310   17.6990   26.9490 C.3       1 IM1         0.0607
     21 C21        -6.9480   18.2370   27.6060 C.3       1 IM1         0.0007
     22 C22        -5.6410   18.2050   26.8190 C.ar      1 IM1        -0.0405
     23 C23        -5.3740   19.1550   25.8290 C.ar      1 IM1        -0.0602
     24 C24        -4.1700   19.0980   25.1430 C.ar      1 IM1        -0.0686
     25 C25        -3.2380   18.1100   25.4370 C.ar      1 IM1        -0.0687
     26 C26        -3.5000   17.1680   26.4200 C.ar      1 IM1        -0.0686
     27 C27        -4.7040   17.2110   27.1140 C.ar      1 IM1        -0.0602
     28 C28        -7.9950   16.7030   25.8020 C.2       1 IM1         0.1836
     29 O29        -7.8430   15.4890   25.9730 O.2       1 IM1        -0.3964
     30 N30        -7.9590   17.2590   24.6020 N.am      1 IM1        -0.2660
     31 C31        -7.7210   16.5210   23.3690 C.3       1 IM1         0.1193
     32 C32        -9.0260   16.2300   22.5970 C.3       1 IM1        -0.0078
     33 C33        -8.7650   15.9230   21.1390 C.3       1 IM1        -0.0583
     34 C34        -9.6260   14.9380   23.1210 C.3       1 IM1        -0.0583
     35 C35        -6.8260   17.4830   22.5930 C.2       1 IM1         0.1379
     36 N36        -6.8490   18.8050   22.6390 N.pl3     1 IM1        -0.2628
     37 C37        -5.7660   19.1670   21.8710 C.2       1 IM1         0.0252
     38 C38        -5.1420   18.0180   21.3920 C.2       1 IM1        -0.0367
     39 N39        -5.8650   16.9570   21.8810 N.2       1 IM1        -0.3371
     40 H1         -8.9905   13.6043   34.3250 H         1 IM1         0.0260
     41 H2         -9.1084   13.4390   32.5402 H         1 IM1         0.0260
     42 H3        -10.5885   13.3298   33.5521 H         1 IM1         0.0260
     43 H4         -8.6458   17.1419   33.2589 H         1 IM1         0.0260
     44 H5         -7.8397   15.7179   32.5179 H         1 IM1         0.0260
     45 H6         -7.9618   15.8518   34.3051 H         1 IM1         0.0260
     46 H7        -11.5818   15.2062   34.5265 H         1 IM1         0.0260
     47 H8        -10.7841   16.8156   34.5174 H         1 IM1         0.0260
     48 H9        -10.0609   15.4600   35.4480 H         1 IM1         0.0260
     49 H10       -11.9685   16.2864   30.2597 H         1 IM1         0.1873
     50 H11       -10.2968   14.7569   28.3675 H         1 IM1         0.0604
     51 H12       -12.2488   15.0432   26.8430 H         1 IM1         0.0449
     52 H13       -13.0646   16.0356   28.0985 H         1 IM1         0.0449
     53 H14       -11.6745   12.6653   27.3301 H         1 IM1         0.0557
     54 H15       -12.3323   10.6171   28.5669 H         1 IM1         0.0599
     55 H16       -13.8132   10.7862   30.5352 H         1 IM1         0.0559
     56 H17       -14.6873   12.9855   31.2706 H         1 IM1         0.0599
     57 H18       -14.0457   15.0398   30.0258 H         1 IM1         0.0557
     58 H19       -10.4612   16.5841   26.6513 H         1 IM1         0.0619
     59 H20       -11.9943   17.9601   27.7609 H         1 IM1         0.2099
     60 H21        -8.4822   16.1147   28.3343 H         1 IM1         0.0320
     61 H22        -8.9338   17.7413   28.9482 H         1 IM1         0.0320
     62 H23        -8.8129   18.5413   26.5467 H         1 IM1         0.0561
     63 H24        -6.7859   17.6511   28.5228 H         1 IM1         0.0453
     64 H25        -7.1383   19.2875   27.8710 H         1 IM1         0.0453
     65 H26        -6.0995   19.9272   25.6001 H         1 IM1         0.0557
     66 H27        -3.9545   19.8291   24.3722 H         1 IM1         0.0599
     67 H28        -2.3002   18.0756   24.8943 H         1 IM1         0.0559
     68 H29        -2.7687   16.4006   26.6467 H         1 IM1         0.0599
     69 H30        -4.9153   16.4755   27.8818 H         1 IM1         0.0557
     70 H31        -8.1041   18.2463   24.5376 H         1 IM1         0.1887
     71 H32        -7.2030   15.5722   23.5725 H         1 IM1         0.0796
     72 H33        -9.7220   17.0750   22.7044 H         1 IM1         0.0345
     73 H34        -9.7193   15.7228   20.6299 H         1 IM1         0.0235
     74 H35        -8.1153   15.0388   21.0610 H         1 IM1         0.0235
     75 H36        -8.2707   16.7842   20.6657 H         1 IM1         0.0235
     76 H37        -9.8586   15.0490   24.1904 H         1 IM1         0.0235
     77 H38        -8.9056   14.1178   22.9857 H         1 IM1         0.0235
     78 H39       -10.5486   14.7109   22.5668 H         1 IM1         0.0235
     79 H40        -7.5165   19.4159   23.1310 H         1 IM1         0.2372
     80 H41        -5.4478   20.1889   21.6700 H         1 IM1         0.0794
     81 H42        -4.2584   17.9700   20.7573 H         1 IM1         0.0408
@<TRIPOS>BOND
     1    1    2 1  
     2    1    3 1  
     3    1    4 1  
     4    1    5 1  
     5    5    6 1  
     6    6    7 2  
     7    6    8 am 
     8    8    9 1  
     9    9   10 1  
    10    9   17 1  
    11   10   11 1  
    12   11   12 ar 
    13   11   16 ar 
    14   12   13 ar 
    15   13   14 ar 
    16   14   15 ar 
    17   15   16 ar 
    18   17   18 1  
    19   17   19 1  
    20   19   20 1  
    21   20   21 1  
    22   20   28 1  
    23   21   22 1  
    24   22   23 ar 
    25   22   27 ar 
    26   23   24 ar 
    27   24   25 ar 
    28   25   26 ar 
    29   26   27 ar 
    30   28   29 2  
    31   28   30 am 
    32   30   31 1  
    33   31   32 1  
    34   31   35 1  
    35   32   33 1  
    36   32   34 1  
    37   35   36 1  
    38   35   39 2  
    39   36   37 1  
    40   37   38 2  
    41   38   39 1  
    42    2   40 1  
    43    2   41 1  
    44    2   42 1  
    45    3   43 1  
    46    3   44 1  
    47    3   45 1  
    48    4   46 1  
    49    4   47 1  
    50    4   48 1  
    51    8   49 1  
    52    9   50 1  
    53   10   51 1  
    54   10   52 1  
    55   12   53 1  
    56   13   54 1  
    57   14   55 1  
    58   15   56 1  
    59   16   57 1  
    60   17   58 1  
    61   18   59 1  
    62   19   60 1  
    63   19   61 1  
    64   20   62 1  
    65   21   63 1  
    66   21   64 1  
    67   23   65 1  
    68   24   66 1  
    69   25   67 1  
    70   26   68 1  
    71   27   69 1  
    72   30   70 1  
    73   31   71 1  
    74   32   72 1  
    75   33   73 1  
    76   33   74 1  
    77   33   75 1  
    78   34   76 1  
    79   34   77 1  
    80   34   78 1  
    81   36   79 1  
    82   37   80 1  
    83   38   81 1  
@<TRIPOS>SUBSTRUCTURE
     1 IM1         1

