### 
### Created by X-TOOL on Mon Sep 10 21:12:47 2018
### 

@<TRIPOS>MOLECULE
1bgo_ligand
   65    67     1     0     0
SMALL
GAST_HUCK


@<TRIPOS>ATOM
      1 C1         36.5060   22.5160  -10.5830 C.ar      1 I10        -0.0612
      2 C2         37.0090   21.2510  -10.4490 C.ar      1 I10        -0.0541
      3 C3         37.2190   20.4360  -11.4710 C.ar      1 I10        -0.0195
      4 C7         37.7290   19.0560  -11.2890 C.ar      1 I10        -0.0243
      5 C8         37.3690   18.1980  -10.2310 C.ar      1 I10        -0.0503
      6 C9         37.7750   16.8200  -10.1530 C.ar      1 I10        -0.0208
      7 C10        38.5940   16.3020  -11.2070 C.ar      1 I10        -0.0575
      8 C11        38.9660   17.1720  -12.2650 C.ar      1 I10        -0.0673
      9 C12        38.5200   18.5260  -12.2730 C.ar      1 I10        -0.0606
     10 C13        37.1260   15.9440   -9.0570 C.3       1 I10         0.0817
     11 C14        35.7080   15.4250   -9.5760 C.2       1 I10         0.1906
     12 C16        36.9270   16.7220   -7.6860 C.3       1 I10        -0.0214
     13 C20        36.1720   17.0100   -5.1920 C.3       1 I10        -0.0624
     14 C24        37.2120   14.9030   -5.8190 C.3       1 I10        -0.0624
     15 N29        35.6570   14.1210  -10.0380 N.am      1 I10        -0.2826
     16 C30        34.4460   13.4270  -10.5640 C.3       1 I10         0.0585
     17 C31        34.0810   12.2580   -9.6300 C.3       1 I10         0.0919
     18 C35        35.2640   11.3260   -9.3130 C.3       1 I10         0.0545
     19 C4         36.9070   20.9290  -12.7030 C.ar      1 I10        -0.0541
     20 C5         36.3960   22.2000  -12.8590 C.ar      1 I10        -0.0612
     21 C6         36.1920   23.0060  -11.7910 C.ar      1 I10        -0.0617
     22 O15        34.7530   16.1760   -9.5480 O.2       1 I10        -0.3938
     23 C17        36.3530   16.0500   -6.3880 C.3       1 I10        -0.0427
     24 O34        33.0630   11.4800  -10.1480 O.3       1 I10        -0.3882
     25 N36        34.9320   10.0410   -8.7200 N.am      1 I10        -0.2432
     26 S39        35.2530    8.5010   -9.5100 S.o2      1 I10         0.0838
     27 O40        35.0740    8.7640  -10.9330 O.2       1 I10        -0.1484
     28 O41        34.4110    7.5570   -8.8920 O.2       1 I10        -0.1484
     29 C42        36.8130    8.1330   -9.1710 C.ar      1 I10         0.1819
     30 N43        37.0730    7.3640   -8.1450 N.ar      1 I10        -0.2696
     31 C44        38.3650    7.1210   -7.8180 C.ar      1 I10         0.0137
     32 C45        39.4280    7.6860   -8.5830 C.ar      1 I10        -0.0333
     33 C46        39.0540    8.5170   -9.6910 C.ar      1 I10        -0.0398
     34 C47        37.7030    8.7260   -9.9710 C.ar      1 I10        -0.0062
     35 H1         36.3594   23.1299   -9.7017 H         1 I10         0.0618
     36 H2         37.2484   20.8969   -9.4528 H         1 I10         0.0624
     37 H3         36.7533   18.5975   -9.4332 H         1 I10         0.0564
     38 H4         38.9225   15.2690  -11.1972 H         1 I10         0.0563
     39 H5         39.5920   16.8053  -13.0704 H         1 I10         0.0601
     40 H6         38.8207   19.1650  -13.0954 H         1 I10         0.0569
     41 H7         37.7799   15.0790   -8.8723 H         1 I10         0.0694
     42 H8         36.2557   17.5637   -7.9117 H         1 I10         0.0316
     43 H9         37.9198   17.1081   -7.4117 H         1 I10         0.0316
     44 H10        35.7677   16.4538   -4.3334 H         1 I10         0.0232
     45 H11        35.4744   17.8140   -5.4694 H         1 I10         0.0232
     46 H12        37.1449   17.4459   -4.9212 H         1 I10         0.0232
     47 H13        37.3975   14.1582   -6.6069 H         1 I10         0.0232
     48 H14        36.6800   14.4268   -4.9822 H         1 I10         0.0232
     49 H15        38.1714   15.3057   -5.4620 H         1 I10         0.0232
     50 H16        36.5086   13.5972  -10.0172 H         1 I10         0.1853
     51 H17        34.6536   13.0400  -11.5725 H         1 I10         0.0546
     52 H18        33.6067   14.1366  -10.6091 H         1 I10         0.0546
     53 H19        33.7325   12.6971   -8.6836 H         1 I10         0.0629
     54 H20        35.9295   11.8550   -8.6150 H         1 I10         0.0502
     55 H21        35.7993   11.1322  -10.2542 H         1 I10         0.0502
     56 H22        37.0639   20.3089  -13.5782 H         1 I10         0.0624
     57 H23        36.1538   22.5594  -13.8526 H         1 I10         0.0618
     58 H24        35.7913   24.0065  -11.9074 H         1 I10         0.0618
     59 H25        35.3676   15.6436   -6.6598 H         1 I10         0.0298
     60 H26        32.3174   12.0318  -10.3533 H         1 I10         0.2099
     61 H27        34.4997   10.0314   -7.8183 H         1 I10         0.1674
     62 H28        38.5933    6.4907   -6.9662 H         1 I10         0.0828
     63 H29        40.4672    7.4968   -8.3392 H         1 I10         0.0713
     64 H30        39.8164    8.9798  -10.3071 H         1 I10         0.0740
     65 H31        37.3887    9.3445  -10.8039 H         1 I10         0.0733
@<TRIPOS>BOND
     1    1    2 ar 
     2    1   21 ar 
     3    2    3 ar 
     4    3    4 1  
     5    3   19 ar 
     6    4    5 ar 
     7    4    9 ar 
     8    5    6 ar 
     9    6    7 ar 
    10    6   10 1  
    11    7    8 ar 
    12    8    9 ar 
    13   10   11 1  
    14   10   12 1  
    15   11   15 am 
    16   11   22 2  
    17   12   23 1  
    18   23   13 1  
    19   23   14 1  
    20   15   16 1  
    21    1   35 1  
    22   16   17 1  
    23   17   18 1  
    24   17   24 1  
    25   18   25 1  
    26   19   20 ar 
    27   20   21 ar 
    28    2   36 1  
    29   25   26 am 
    30    5   37 1  
    31   26   27 2  
    32   26   28 2  
    33   26   29 1  
    34   29   30 ar 
    35   29   34 ar 
    36   30   31 ar 
    37   31   32 ar 
    38   32   33 ar 
    39   33   34 ar 
    40    7   38 1  
    41    8   39 1  
    42    9   40 1  
    43   10   41 1  
    44   12   42 1  
    45   12   43 1  
    46   13   44 1  
    47   13   45 1  
    48   13   46 1  
    49   14   47 1  
    50   14   48 1  
    51   14   49 1  
    52   15   50 1  
    53   16   51 1  
    54   16   52 1  
    55   17   53 1  
    56   18   54 1  
    57   18   55 1  
    58   19   56 1  
    59   20   57 1  
    60   21   58 1  
    61   23   59 1  
    62   24   60 1  
    63   25   61 1  
    64   31   62 1  
    65   32   63 1  
    66   33   64 1  
    67   34   65 1  
@<TRIPOS>SUBSTRUCTURE
     1 I10         1

