### 
### Created by X-TOOL on Mon Sep 10 21:12:47 2018
### 

@<TRIPOS>MOLECULE
1bgq_ligand
   42    44     1     0     0
SMALL
GAST_HUCK


@<TRIPOS>ATOM
      1 C1         18.4690   -2.4070   -5.8760 C.2       1 RDC         0.2451
      2 C2         18.5100   -3.2310   -4.6240 C.ar      1 RDC         0.0834
      3 C3         19.4790   -4.3160   -4.5800 C.ar      1 RDC         0.0971
      4 C4         19.6000   -5.1560   -3.4760 C.ar      1 RDC        -0.0045
      5 C5         18.7830   -4.9600   -2.3700 C.ar      1 RDC         0.0931
      6 C6         17.8120   -3.9000   -2.3540 C.ar      1 RDC         0.0654
      7 C7         17.6550   -3.0250   -3.4560 C.ar      1 RDC        -0.0069
      8 C8         16.5890   -1.8830   -3.4010 C.3       1 RDC         0.0497
      9 C9         15.0750   -2.2340   -3.3570 C.2       1 RDC         0.1176
     10 C10        14.5570   -3.4150   -4.0690 C.2       1 RDC        -0.0220
     11 C11        14.6440   -3.6110   -5.3810 C.2       1 RDC        -0.0641
     12 C12        14.1340   -4.7860   -6.0820 C.2       1 RDC        -0.0558
     13 C13        14.2120   -5.0040   -7.3960 C.2       1 RDC        -0.0298
     14 C14        14.7920   -4.2240   -8.5820 C.3       1 RDC         0.1255
     15 C15        15.0290   -2.8100   -8.6020 C.3       1 RDC         0.1057
     16 C16        16.4730   -2.3270   -8.7000 C.3       1 RDC         0.0093
     17 C17        17.0310   -1.4340   -7.6190 C.3       1 RDC         0.0858
     18 C18        16.2030   -0.2300   -7.2080 C.3       1 RDC        -0.0343
     19 O1         17.2500   -2.2200   -6.3820 O.3       1 RDC        -0.2787
     20 O2         19.4910   -1.9350   -6.4090 O.2       1 RDC        -0.3725
     21 O3         20.3200   -4.5840   -5.6190 O.3       1 RDC        -0.3313
     22 O4         18.8700   -5.7710   -1.2580 O.3       1 RDC        -0.3330
     23 O5         14.3110   -1.5570   -2.7190 O.2       1 RDC        -0.3923
     24 O6         14.2030   -3.4490   -9.5650 O.3       1 RDC        -0.3469
     25 CL1        16.8650   -3.7540   -0.9320 Cl        1 RDC        -0.0932
     26 H1         20.3283   -5.9589   -3.4797 H         1 RDC         0.0425
     27 H2         16.7446   -1.2601   -4.2942 H         1 RDC         0.0645
     28 H3         16.8040   -1.2911   -2.4991 H         1 RDC         0.0645
     29 H4         14.0660   -4.1853   -3.4761 H         1 RDC         0.0499
     30 H5         15.1308   -2.8396   -5.9759 H         1 RDC         0.0706
     31 H6         13.6473   -5.5515   -5.4795 H         1 RDC         0.0474
     32 H7         13.7619   -5.9499   -7.6935 H         1 RDC         0.0885
     33 H8         15.6127   -4.8622   -8.9413 H         1 RDC         0.0863
     34 H9         14.5198   -2.1521   -7.8823 H         1 RDC         0.0661
     35 H10        16.5631   -1.7767   -9.6482 H         1 RDC         0.0322
     36 H11        17.1091   -3.2238   -8.7346 H         1 RDC         0.0322
     37 H12        17.9992   -1.0606   -7.9839 H         1 RDC         0.0645
     38 H13        16.7297    0.3246   -6.4174 H         1 RDC         0.0258
     39 H14        15.2266   -0.5680   -6.8306 H         1 RDC         0.0258
     40 H15        16.0527    0.4260   -8.0781 H         1 RDC         0.0258
     41 H16        20.8711   -5.3250   -5.3959 H         1 RDC         0.2508
     42 H17        18.6866   -6.6691   -1.5073 H         1 RDC         0.2502
@<TRIPOS>BOND
     1    1   20 2  
     2    1   19 1  
     3    1    2 1  
     4    2    7 ar 
     5    2    3 ar 
     6    3   21 1  
     7    3    4 ar 
     8    4    5 ar 
     9    5   22 1  
    10    5    6 ar 
    11    6    7 ar 
    12    7    8 1  
    13    8    9 1  
    14    9   23 2  
    15    9   10 1  
    16   10   11 2  
    17   11   12 1  
    18   12   13 2  
    19   13   14 1  
    20   14   24 1  
    21   14   15 1  
    22   15   24 1  
    23   15   16 1  
    24   16   17 1  
    25   17   19 1  
    26   17   18 1  
    27    6   25 1  
    28    4   26 1  
    29    8   27 1  
    30    8   28 1  
    31   10   29 1  
    32   11   30 1  
    33   12   31 1  
    34   13   32 1  
    35   14   33 1  
    36   15   34 1  
    37   16   35 1  
    38   16   36 1  
    39   17   37 1  
    40   18   38 1  
    41   18   39 1  
    42   18   40 1  
    43   21   41 1  
    44   22   42 1  
@<TRIPOS>SUBSTRUCTURE
     1 RDC         1

