### 
### Created by X-TOOL on Mon Sep 10 21:12:46 2018
### 

@<TRIPOS>MOLECULE
1bhf_ligand
   81    81     1     0     0
SMALL
GAST_HUCK


@<TRIPOS>ATOM
      1 C          27.6390   -3.7340   -1.7180 C.2       1 ACE         0.1752
      2 O          28.2180   -4.1110   -0.6940 O.2       1 ACE        -0.3972
      3 CH3        27.6430   -4.6120   -2.9520 C.3       1 ACE         0.0258
      4 N          26.9090   -2.6180   -1.7950 N.am      1 1PA        -0.2642
      5 CA         26.8160   -1.6200   -0.7320 C.3       1 1PA         0.1395
      6 CB         27.3020   -0.2740   -1.2730 C.3       1 1PA         0.0184
      7 CG         28.7740   -0.2820   -1.5270 C.ar      1 1PA        -0.0451
      8 CD1        29.6750   -0.2880   -0.4600 C.ar      1 1PA        -0.0663
      9 CE1        31.0600   -0.3520   -0.6900 C.ar      1 1PA        -0.0651
     10 CD2        29.2780   -0.3380   -2.8210 C.ar      1 1PA        -0.0663
     11 CE2        30.6650   -0.4050   -3.0430 C.ar      1 1PA        -0.0651
     12 CZ         31.5700   -0.4150   -1.9850 C.ar      1 1PA        -0.0368
     13 CH         33.0620   -0.5450   -2.2370 C.3       1 1PA         0.0304
     14 CO         33.8610   -0.9830   -1.0180 C.2       1 1PA         0.0453
     15 O1         33.5870   -2.0610   -0.4540 O.co2     1 1PA        -0.5666
     16 O2         34.7620   -0.2370   -0.5980 O.co2     1 1PA        -0.5666
     17 C          25.4310   -1.4430   -0.1020 C.2       1 1PA         0.2058
     18 O          24.4480   -1.1160   -0.7770 O.2       1 1PA        -0.3942
     19 N          25.3810   -1.6540    1.2010 N.am      1 GLU        -0.2635
     20 CA         24.1590   -1.5130    1.9680 C.3       1 GLU         0.1325
     21 C          23.8810   -0.0050    2.0920 C.2       1 GLU         0.2040
     22 O          24.8030    0.8160    2.0170 O.2       1 GLU        -0.3944
     23 CB         24.3850   -2.1560    3.3330 C.3       1 GLU        -0.0008
     24 CG         23.1690   -2.3880    4.1900 C.3       1 GLU         0.0044
     25 CD         22.2020   -3.4460    3.6450 C.2       1 GLU         0.0350
     26 OE1        22.4490   -4.0610    2.5940 O.co2     1 GLU        -0.5690
     27 OE2        21.1720   -3.6520    4.2990 O.co2     1 GLU        -0.5690
     28 N          22.6140    0.3660    2.2340 N.am      1 GLU        -0.2636
     29 CA         22.2640    1.7710    2.3640 C.3       1 GLU         0.1324
     30 C          21.3300    1.9310    3.5540 C.2       1 GLU         0.2035
     31 O          20.7540    0.9580    4.0570 O.2       1 GLU        -0.3944
     32 CB         21.5260    2.2980    1.1140 C.3       1 GLU        -0.0008
     33 CG         22.2080    2.1130   -0.2250 C.3       1 GLU         0.0044
     34 CD         23.4140    3.0300   -0.4660 C.2       1 GLU         0.0350
     35 OE1        23.7180    3.9120    0.3580 O.co2     1 GLU        -0.5690
     36 OE2        24.0630    2.8480   -1.5050 O.co2     1 GLU        -0.5690
     37 N          21.2330    3.1670    4.0250 N.am      1 ILE        -0.2692
     38 CA         20.3300    3.5070    5.1040 C.3       1 ILE         0.0969
     39 C          18.9680    3.7500    4.3940 C.2       1 ILE         0.0604
     40 O          18.9640    4.3350    3.2920 O.co2     1 ILE        -0.5666
     41 CB         20.8310    4.7620    5.8580 C.3       1 ILE        -0.0092
     42 CG1        21.9400    4.3630    6.8260 C.3       1 ILE        -0.0497
     43 CG2        19.6850    5.4810    6.5640 C.3       1 ILE        -0.0588
     44 CD1        22.5100    5.5200    7.6340 C.3       1 ILE        -0.0649
     45 OXT        17.9340    3.2380    4.8710 O.co2     1 ILE        -0.5666
     46 H1         27.0821   -4.1151   -3.7573 H         1 ACE         0.0467
     47 H2         27.1699   -5.5769   -2.7171 H         1 ACE         0.0467
     48 H3         28.6798   -4.7816   -3.2780 H         1 ACE         0.0467
     49 H4         26.3922   -2.4549   -2.6354 H         1 1PA         0.1884
     50 H5         27.4970   -1.9381    0.0712 H         1 1PA         0.0822
     51 H6         27.0711    0.5107   -0.5375 H         1 1PA         0.0461
     52 H7         26.7784   -0.0583   -2.2160 H         1 1PA         0.0461
     53 H8         29.3020   -0.2428    0.5568 H         1 1PA         0.0540
     54 H9         31.7417   -0.3524    0.1528 H         1 1PA         0.0542
     55 H10        28.5974   -0.3300   -3.6647 H         1 1PA         0.0540
     56 H11        31.0377   -0.4498   -4.0599 H         1 1PA         0.0542
     57 H12        33.4433    0.4325   -2.5672 H         1 1PA         0.0575
     58 H13        33.2145   -1.2866   -3.0349 H         1 1PA         0.0575
     59 H14        26.2188   -1.9214    1.6769 H         1 GLU         0.1883
     60 H15        23.3201   -2.0088    1.4577 H         1 GLU         0.0801
     61 H16        25.0690   -1.5050    3.8972 H         1 GLU         0.0330
     62 H17        24.8632   -3.1322    3.1647 H         1 GLU         0.0330
     63 H18        22.6238   -1.4367    4.2783 H         1 GLU         0.0433
     64 H19        23.5065   -2.7110    5.1858 H         1 GLU         0.0433
     65 H20        21.8938   -0.3276    2.2517 H         1 GLU         0.1883
     66 H21        23.1802    2.3589    2.5221 H         1 GLU         0.0801
     67 H22        21.3643    3.3767    1.2561 H         1 GLU         0.0330
     68 H23        20.5542    1.7851    1.0634 H         1 GLU         0.0330
     69 H24        21.4679    2.3065   -1.0154 H         1 GLU         0.0433
     70 H25        22.5523    1.0705   -0.2923 H         1 GLU         0.0433
     71 H26        21.8006    3.8854    3.6228 H         1 ILE         0.1875
     72 H27        20.2451    2.6723    5.8154 H         1 ILE         0.0729
     73 H28        21.2571    5.4579    5.1204 H         1 ILE         0.0338
     74 H29        22.7582    3.9115    6.2458 H         1 ILE         0.0267
     75 H30        21.5343    3.6194    7.5277 H         1 ILE         0.0267
     76 H31        18.9117    5.7484    5.8288 H         1 ILE         0.0234
     77 H32        20.0657    6.3944    7.0444 H         1 ILE         0.0234
     78 H33        19.2515    4.8185    7.3276 H         1 ILE         0.0234
     79 H34        23.2995    5.1464    8.3027 H         1 ILE         0.0230
     80 H35        21.7093    5.9788    8.2326 H         1 ILE         0.0230
     81 H36        22.9333    6.2710    6.9508 H         1 ILE         0.0230
@<TRIPOS>BOND
     1    1    2 2  
     2    1    3 1  
     3    5    4 1  
     4   17    5 1  
     5    5    6 1  
     6    6    7 1  
     7    7   10 ar 
     8    7    8 ar 
     9    8    9 ar 
    10    9   12 ar 
    11   12   13 1  
    12   11   12 ar 
    13   10   11 ar 
    14   13   14 1  
    15   14   16 ar 
    16   14   15 ar 
    17   17   18 2  
    18   20   21 1  
    19   20   23 1  
    20   19   20 1  
    21   23   24 1  
    22   24   25 1  
    23   25   26 ar 
    24   25   27 ar 
    25   21   22 2  
    26   29   30 1  
    27   29   32 1  
    28   28   29 1  
    29   32   33 1  
    30   33   34 1  
    31   34   35 ar 
    32   34   36 ar 
    33   30   31 2  
    34   38   39 1  
    35   38   41 1  
    36   37   38 1  
    37   41   42 1  
    38   41   43 1  
    39   42   44 1  
    40   39   45 ar 
    41   39   40 ar 
    42   21   28 am 
    43   30   37 am 
    44    4    1 am 
    45   17   19 am 
    46    3   46 1  
    47    3   47 1  
    48    3   48 1  
    49    4   49 1  
    50    5   50 1  
    51    6   51 1  
    52    6   52 1  
    53    8   53 1  
    54    9   54 1  
    55   10   55 1  
    56   11   56 1  
    57   13   57 1  
    58   13   58 1  
    59   19   59 1  
    60   20   60 1  
    61   23   61 1  
    62   23   62 1  
    63   24   63 1  
    64   24   64 1  
    65   28   65 1  
    66   29   66 1  
    67   32   67 1  
    68   32   68 1  
    69   33   69 1  
    70   33   70 1  
    71   37   71 1  
    72   38   72 1  
    73   41   73 1  
    74   42   74 1  
    75   42   75 1  
    76   43   76 1  
    77   43   77 1  
    78   43   78 1  
    79   44   79 1  
    80   44   80 1  
    81   44   81 1  
@<TRIPOS>SUBSTRUCTURE
     1 ACE         1

