### 
### Created by X-TOOL on Mon Sep 10 21:12:46 2018
### 

@<TRIPOS>MOLECULE
1bhx_ligand
   60    62     1     0     0
SMALL
GAST_HUCK


@<TRIPOS>ATOM
      1 C1         22.1690  -14.5920   25.7200 C.ar      1 R56        -0.0687
      2 C3         22.1450  -15.9400   25.3790 C.ar      1 R56        -0.0685
      3 C5         20.9710  -16.7030   25.6290 C.ar      1 R56        -0.0587
      4 C7         19.8390  -16.0960   26.2060 C.ar      1 R56        -0.0204
      5 C8         19.8790  -14.7540   26.5500 C.ar      1 R56        -0.0587
      6 C10        21.0250  -14.0020   26.3100 C.ar      1 R56        -0.0685
      7 C12        18.5670  -16.9220   26.4870 C.3       1 R56         0.1181
      8 S15        17.8430  -17.3940   24.8500 S.o2      1 R56         0.0511
      9 O16        18.8810  -18.1230   24.0360 O.2       1 R56        -0.1532
     10 O17        16.5900  -17.9970   25.0660 O.2       1 R56        -0.1532
     11 N18        17.6520  -15.8550   24.1860 N.am      1 R56        -0.2281
     12 C20        18.0550  -15.5820   22.8040 C.3       1 R56         0.1265
     13 C22        17.3480  -14.3450   22.3100 C.2       1 R56         0.2035
     14 O23        16.3540  -13.9150   22.9140 O.2       1 R56        -0.3946
     15 N24        17.8480  -13.7720   21.1870 N.am      1 R56        -0.2367
     16 C25        19.0090  -14.3360   20.5480 C.3       1 R56         0.0938
     17 C27        20.1060  -14.6080   21.5470 C.3       1 R56        -0.0162
     18 C30        19.5960  -15.4160   22.7580 C.3       1 R56        -0.0130
     19 S33        19.5770  -13.0300   19.5260 S.3       1 R56        -0.1281
     20 C34        17.9100  -12.3660   19.2870 C.3       1 R56         0.0365
     21 C37        17.2240  -12.5620   20.5980 C.3       1 R56         0.1437
     22 C39        15.6820  -12.7390   20.3790 C.2       1 R56         0.2027
     23 O40        15.2270  -13.7840   19.9280 O.2       1 R56        -0.3945
     24 N41        14.8940  -11.6530   20.6710 N.am      1 R56        -0.2849
     25 C43        13.4600  -11.7790   20.4810 C.3       1 R56         0.0341
     26 C46        12.7470  -10.6020   21.1150 C.3       1 R56         0.0004
     27 C49        12.8600  -10.7240   22.6160 C.3       1 R56         0.0644
     28 N52        12.0620  -11.8660   23.1110 N.pl3     1 R56        -0.2722
     29 C54        11.1950  -11.7100   24.0880 C.cat     1 R56         0.2882
     30 N55        11.0320  -10.5560   24.6390 N.pl3     1 R56        -0.2849
     31 N58        10.5070  -12.7250   24.5240 N.pl3     1 R56        -0.2849
     32 H1         23.0565  -13.9976   25.5356 H         1 R56         0.0559
     33 H2         23.0134  -16.4051   24.9266 H         1 R56         0.0599
     34 H3         20.9476  -17.7564   25.3742 H         1 R56         0.0557
     35 H4         19.0139  -14.2882   27.0079 H         1 R56         0.0557
     36 H5         21.0421  -12.9518   26.5780 H         1 R56         0.0599
     37 H6         17.8453  -16.3192   27.0578 H         1 R56         0.0682
     38 H7         18.8239  -17.8256   27.0593 H         1 R56         0.0682
     39 H8         17.2598  -15.1216   24.7412 H         1 R56         0.1703
     40 H9         17.7688  -16.4315   22.1665 H         1 R56         0.0753
     41 H10        18.7596  -15.2433   19.9783 H         1 R56         0.0676
     42 H11        20.5075  -13.6481   21.9040 H         1 R56         0.0298
     43 H12        20.9052  -15.1780   21.0507 H         1 R56         0.0298
     44 H13        20.0505  -16.4171   22.7216 H         1 R56         0.0309
     45 H14        19.9157  -14.9013   23.6761 H         1 R56         0.0309
     46 H15        17.3858  -12.9147   18.4907 H         1 R56         0.0425
     47 H16        17.9528  -11.2975   19.0291 H         1 R56         0.0425
     48 H17        17.3951  -11.6949   21.2529 H         1 R56         0.0811
     49 H18        15.2960  -10.8003   21.0047 H         1 R56         0.1851
     50 H19        13.1112  -12.7112   20.9493 H         1 R56         0.0521
     51 H20        13.2361  -11.8033   19.4043 H         1 R56         0.0521
     52 H21        11.6870  -10.6084   20.8212 H         1 R56         0.0318
     53 H22        13.2139   -9.6629   20.7831 H         1 R56         0.0318
     54 H23        12.4920   -9.7980   23.0819 H         1 R56         0.0689
     55 H24        13.9151  -10.8768   22.8871 H         1 R56         0.0689
     56 H25        12.1865  -12.7957   22.6854 H         1 R56         0.2642
     57 H26        10.3512  -10.4419   25.4034 H         1 R56         0.2615
     58 H27        11.5826   -9.7481   24.3148 H         1 R56         0.2615
     59 H28        10.6277  -13.6525   24.0926 H         1 R56         0.2615
     60 H29         9.8418  -12.6009   25.3005 H         1 R56         0.2615
@<TRIPOS>BOND
     1    1    6 ar 
     2    1    2 ar 
     3    2    3 ar 
     4    3    4 ar 
     5    4    7 1  
     6    4    5 ar 
     7    5    6 ar 
     8    7    8 1  
     9    8   11 am 
    10    8   10 2  
    11    8    9 2  
    12   11   12 1  
    13   12   18 1  
    14   12   13 1  
    15   13   15 am 
    16   13   14 2  
    17   15   21 1  
    18   15   16 1  
    19   16   19 1  
    20   16   17 1  
    21   17   18 1  
    22   19   20 1  
    23   20   21 1  
    24   21   22 1  
    25   22   24 am 
    26   22   23 2  
    27   24   25 1  
    28   25   26 1  
    29   26   27 1  
    30   27   28 1  
    31   28   29 ar 
    32   29   31 ar 
    33   29   30 ar 
    34    1   32 1  
    35    2   33 1  
    36    3   34 1  
    37    5   35 1  
    38    6   36 1  
    39    7   37 1  
    40    7   38 1  
    41   11   39 1  
    42   12   40 1  
    43   16   41 1  
    44   17   42 1  
    45   17   43 1  
    46   18   44 1  
    47   18   45 1  
    48   20   46 1  
    49   20   47 1  
    50   21   48 1  
    51   24   49 1  
    52   25   50 1  
    53   25   51 1  
    54   26   52 1  
    55   26   53 1  
    56   27   54 1  
    57   27   55 1  
    58   28   56 1  
    59   30   57 1  
    60   30   58 1  
    61   31   59 1  
    62   31   60 1  
@<TRIPOS>SUBSTRUCTURE
     1 R56         1

