### 
### Created by X-TOOL on Mon Sep 10 21:12:45 2018
### 

@<TRIPOS>MOLECULE
1bil_ligand
   98   100     1     0     0
SMALL
GAST_HUCK


@<TRIPOS>ATOM
      1 C1         42.6780   61.3260   49.5400 C.3       1 0IU         0.0223
      2 C2         43.8000   62.4050   47.5520 C.3       1 0IU         0.0223
      3 C          41.6350   61.3190   47.3170 C.2       1 0IU         0.2009
      4 O          41.6010   61.6280   46.1740 O.2       1 0IU        -0.3947
      5 N          42.6860   61.6600   48.1050 N.am      1 0IU        -0.2777
      6 N          39.5960   60.0250   46.8630 N.am      1 0IU        -0.2402
      7 C          38.8020   60.9020   46.2930 C.2       1 0IU         0.1853
      8 O          38.9480   62.0460   46.6140 O.2       1 0IU        -0.3964
      9 CA         40.5160   60.4930   47.9050 C.3       1 0IU         0.1252
     10 CB         39.5960   58.6350   46.4440 C.3       1 0IU         0.0781
     11 CG2        41.0710   58.3440   46.0070 C.3       1 0IU        -0.0315
     12 CG         39.2750   57.7620   47.6730 C.ar      1 0IU        -0.0179
     13 CD1        40.0460   56.7350   47.9830 C.ar      1 0IU        -0.0581
     14 CD2        38.2760   58.0740   48.4460 C.ar      1 0IU        -0.0581
     15 CE1        39.8170   56.0270   49.0960 C.ar      1 0IU        -0.0685
     16 CE2        38.0320   57.3560   49.5440 C.ar      1 0IU        -0.0685
     17 CZ         38.7890   56.3200   49.8620 C.ar      1 0IU        -0.0687
     18 C          36.2920   61.0310   43.5100 C.2       1 0IU         0.1833
     19 O          36.5720   60.1740   42.6580 O.2       1 0IU        -0.3964
     20 CA         37.4220   61.6330   44.2900 C.3       1 0IU         0.0728
     21 CN         37.7980   60.4680   45.2390 C.3       1 0IU         0.0589
     22 CB         38.6110   61.9110   43.3530 C.3       1 0IU        -0.0028
     23 CG         38.4330   63.2880   42.7490 C.2       1 0IU        -0.0242
     24 CD2        37.8310   63.4240   41.5910 C.2       1 0IU        -0.0126
     25 SE2        37.6200   65.1320   41.1860 S.3       1 0IU        -0.0038
     26 CE1        38.4270   65.4480   42.6970 C.2       1 0IU         0.1737
     27 ND1        38.7640   64.4180   43.3590 N.2       1 0IU        -0.3156
     28 NZ         38.6720   66.6810   43.0370 N.pl3     1 0IU        -0.2986
     29 C1         32.9370   61.5410   42.5010 C.3       1 0IU         0.1038
     30 C2         33.8720   60.5950   43.2990 C.3       1 0IU         0.0705
     31 C3         33.0270   59.8490   44.3920 C.3       1 0IU        -0.0245
     32 C1'        33.8770   59.1580   45.4910 C.3       1 0IU        -0.0389
     33 C2'        32.9940   58.8390   46.7460 C.3       1 0IU        -0.0501
     34 C3'        33.8070   57.9750   47.7630 C.3       1 0IU        -0.0528
     35 C4'        34.1990   56.6280   47.0890 C.3       1 0IU        -0.0530
     36 C5'        35.1680   56.9920   45.9410 C.3       1 0IU        -0.0528
     37 C6'        34.3530   57.8270   44.9140 C.3       1 0IU        -0.0501
     38 N2         35.0080   61.2930   43.9130 N.am      1 0IU        -0.2809
     39 O1         32.7980   62.8060   43.1460 O.3       1 0IU        -0.3869
     40 C1         33.5000   61.7800   41.0910 C.3       1 0IU         0.0835
     41 C2         32.5460   62.7620   40.3350 C.3       1 0IU        -0.0220
     42 C3         33.1650   63.1330   38.9640 C.3       1 0IU        -0.0443
     43 C4         32.1240   63.6600   37.9810 C.3       1 0IU        -0.0626
     44 C5         34.2660   64.1800   39.1790 C.3       1 0IU        -0.0626
     45 O1         33.4940   60.5190   40.4480 O.3       1 0IU        -0.3892
     46 H1         43.6094   61.6820   50.0045 H         1 0IU         0.0486
     47 H2         42.6008   60.2356   49.6623 H         1 0IU         0.0486
     48 H3         41.8179   61.8111   50.0246 H         1 0IU         0.0486
     49 H4         43.6376   62.5622   46.4755 H         1 0IU         0.0486
     50 H5         44.7310   61.8390   47.7036 H         1 0IU         0.0486
     51 H6         43.8766   63.3791   48.0573 H         1 0IU         0.0486
     52 H7         40.9463   59.6220   48.4209 H         1 0IU         0.0767
     53 H8         39.9577   61.1076   48.6265 H         1 0IU         0.0767
     54 H9         38.8822   58.4521   45.6273 H         1 0IU         0.0721
     55 H10        41.1549   57.2995   45.6723 H         1 0IU         0.0274
     56 H11        41.7458   58.5112   46.8595 H         1 0IU         0.0274
     57 H12        41.3486   59.0168   45.1822 H         1 0IU         0.0274
     58 H13        40.8693   56.4638   47.3321 H         1 0IU         0.0557
     59 H14        37.6418   58.9174   48.1980 H         1 0IU         0.0557
     60 H15        40.4790   55.2121   49.3658 H         1 0IU         0.0599
     61 H16        37.2005   57.6263   50.1848 H         1 0IU         0.0599
     62 H17        38.5663   55.7226   50.7387 H         1 0IU         0.0559
     63 H18        37.1231   62.5429   44.8311 H         1 0IU         0.0582
     64 H19        38.2353   59.6518   44.6452 H         1 0IU         0.0532
     65 H20        36.8873   60.1092   45.7409 H         1 0IU         0.0532
     66 H21        38.6384   61.1557   42.5538 H         1 0IU         0.0425
     67 H22        39.5503   61.8747   43.9242 H         1 0IU         0.0425
     68 H23        37.5050   62.5958   40.9635 H         1 0IU         0.0432
     69 H24        39.1484   66.8848   43.9272 H         1 0IU         0.1863
     70 H25        38.3894   67.4524   42.4157 H         1 0IU         0.1863
     71 H26        31.9465   61.0693   42.4208 H         1 0IU         0.0642
     72 H27        34.2768   59.8480   42.6004 H         1 0IU         0.0582
     73 H28        32.4183   59.0808   43.8927 H         1 0IU         0.0291
     74 H29        32.3661   60.5823   44.8772 H         1 0IU         0.0291
     75 H30        34.7291   59.7933   45.7744 H         1 0IU         0.0302
     76 H31        32.0984   58.2840   46.4302 H         1 0IU         0.0268
     77 H32        32.6911   59.7804   47.2277 H         1 0IU         0.0268
     78 H33        33.1909   57.7761   48.6523 H         1 0IU         0.0265
     79 H34        34.7171   58.5162   48.0610 H         1 0IU         0.0265
     80 H35        33.3053   56.1259   46.6900 H         1 0IU         0.0265
     81 H36        34.6970   55.9682   47.8147 H         1 0IU         0.0265
     82 H37        35.5526   56.0776   45.4656 H         1 0IU         0.0265
     83 H38        36.0092   57.5852   46.3290 H         1 0IU         0.0265
     84 H39        34.9887   58.0286   44.0392 H         1 0IU         0.0268
     85 H40        33.4745   57.2431   44.6022 H         1 0IU         0.0268
     86 H41        34.8436   61.9670   44.6332 H         1 0IU         0.1855
     87 H42        32.4299   62.6796   44.0125 H         1 0IU         0.2100
     88 H43        34.5186   62.1929   41.1354 H         1 0IU         0.0620
     89 H44        32.4095   63.6743   40.9342 H         1 0IU         0.0293
     90 H45        31.5711   62.2774   40.1777 H         1 0IU         0.0293
     91 H46        33.6164   62.2279   38.5317 H         1 0IU         0.0296
     92 H47        32.6128   63.9079   37.0272 H         1 0IU         0.0232
     93 H48        31.6514   64.5624   38.3961 H         1 0IU         0.0232
     94 H49        31.3574   62.8898   37.8108 H         1 0IU         0.0232
     95 H50        35.0100   63.7892   39.8888 H         1 0IU         0.0232
     96 H51        33.8218   65.1014   39.5836 H         1 0IU         0.0232
     97 H52        34.7555   64.3999   38.2188 H         1 0IU         0.0232
     98 H53        32.6116   60.1670   40.4518 H         1 0IU         0.2099
@<TRIPOS>BOND
     1    5    1 1  
     2    5    2 1  
     3    3    5 am 
     4    3    4 2  
     5    6   10 1  
     6    6    9 1  
     7    7    6 am 
     8    7    8 2  
     9   10   12 1  
    10   10   11 1  
    11   12   14 ar 
    12   12   13 ar 
    13   13   15 ar 
    14   15   17 ar 
    15   16   17 ar 
    16   14   16 ar 
    17   18   20 1  
    18   18   19 2  
    19   20   22 1  
    20   20   21 1  
    21   22   23 1  
    22   23   27 1  
    23   23   24 2  
    24   24   25 1  
    25   25   26 1  
    26   26   28 1  
    27   27   26 2  
    28   29   39 1  
    29   30   29 1  
    30   38   30 1  
    31   30   31 1  
    32   31   32 1  
    33   32   37 1  
    34   32   33 1  
    35   33   34 1  
    36   34   35 1  
    37   36   35 1  
    38   37   36 1  
    39   40   45 1  
    40   40   41 1  
    41   41   42 1  
    42   42   44 1  
    43   42   43 1  
    44    9    3 1  
    45   21    7 1  
    46   29   40 1  
    47   38   18 am 
    48    1   46 1  
    49    1   47 1  
    50    1   48 1  
    51    2   49 1  
    52    2   50 1  
    53    2   51 1  
    54    9   52 1  
    55    9   53 1  
    56   10   54 1  
    57   11   55 1  
    58   11   56 1  
    59   11   57 1  
    60   13   58 1  
    61   14   59 1  
    62   15   60 1  
    63   16   61 1  
    64   17   62 1  
    65   20   63 1  
    66   21   64 1  
    67   21   65 1  
    68   22   66 1  
    69   22   67 1  
    70   24   68 1  
    71   28   69 1  
    72   28   70 1  
    73   29   71 1  
    74   30   72 1  
    75   31   73 1  
    76   31   74 1  
    77   32   75 1  
    78   33   76 1  
    79   33   77 1  
    80   34   78 1  
    81   34   79 1  
    82   35   80 1  
    83   35   81 1  
    84   36   82 1  
    85   36   83 1  
    86   37   84 1  
    87   37   85 1  
    88   38   86 1  
    89   39   87 1  
    90   40   88 1  
    91   41   89 1  
    92   41   90 1  
    93   42   91 1  
    94   43   92 1  
    95   43   93 1  
    96   43   94 1  
    97   44   95 1  
    98   44   96 1  
    99   44   97 1  
   100   45   98 1  
@<TRIPOS>SUBSTRUCTURE
     1 0IU         1

