### 
### Created by X-TOOL on Mon Sep 10 21:12:45 2018
### 

@<TRIPOS>MOLECULE
1bim_ligand
   92    95     1     0     0
SMALL
GAST_HUCK


@<TRIPOS>ATOM
      1 N          39.5920   60.1220   46.4970 N.am      1 0QB        -0.2621
      2 C          38.6110   60.9360   46.0590 C.2       1 0QB         0.1829
      3 O          38.4800   62.0600   46.4600 O.2       1 0QB        -0.3965
      4 CA         40.4930   60.5570   47.5680 C.3       1 0QB         0.0251
      5 CB         39.6150   58.7620   46.0070 C.3       1 0QB         0.0753
      6 CG2        41.0300   58.5410   45.4730 C.3       1 0QB        -0.0317
      7 CG         39.1830   57.8390   47.1730 C.ar      1 0QB        -0.0180
      8 CD1        39.9930   56.8620   47.5970 C.ar      1 0QB        -0.0581
      9 CD2        38.0190   58.0380   47.8010 C.ar      1 0QB        -0.0581
     10 CE1        39.6280   56.0880   48.6330 C.ar      1 0QB        -0.0685
     11 CE2        37.6500   57.2460   48.8200 C.ar      1 0QB        -0.0685
     12 CZ         38.4480   56.2730   49.2350 C.ar      1 0QB        -0.0687
     13 C          36.1270   60.9350   43.2480 C.2       1 0QB         0.1833
     14 O          36.4230   60.0650   42.4830 O.2       1 0QB        -0.3964
     15 CA         37.2820   61.5240   44.0390 C.3       1 0QB         0.0728
     16 CN         37.6760   60.3910   44.9980 C.3       1 0QB         0.0587
     17 CB         38.4440   61.7430   43.0450 C.3       1 0QB        -0.0028
     18 CG         38.2710   63.1290   42.3880 C.2       1 0QB        -0.0242
     19 CD2        37.8130   63.2570   41.1440 C.2       1 0QB        -0.0126
     20 SE2        37.6750   64.9940   40.7120 S.3       1 0QB        -0.0038
     21 CE1        38.2670   65.3290   42.3370 C.2       1 0QB         0.1737
     22 ND1        38.5120   64.2890   43.0470 N.2       1 0QB        -0.3156
     23 NZ         38.3810   66.5610   42.7250 N.pl3     1 0QB        -0.2986
     24 C1         32.8300   61.7010   41.9250 C.3       1 0QB         0.0975
     25 C2         33.6700   60.6620   42.7430 C.3       1 0QB         0.0705
     26 C3         32.7340   59.9840   43.8030 C.3       1 0QB        -0.0245
     27 C1'        33.5630   59.1690   44.8190 C.3       1 0QB        -0.0389
     28 C2'        32.9620   59.2690   46.2580 C.3       1 0QB        -0.0501
     29 C3'        33.7150   58.3510   47.2640 C.3       1 0QB        -0.0528
     30 C4'        33.6750   56.8850   46.7780 C.3       1 0QB        -0.0530
     31 C5'        34.2870   56.7900   45.3440 C.3       1 0QB        -0.0528
     32 C6'        33.5140   57.7030   44.3480 C.3       1 0QB        -0.0501
     33 N2         34.8120   61.2980   43.4700 N.am      1 0QB        -0.2808
     34 O1         32.5860   62.8260   42.7790 O.3       1 0QB        -0.3869
     35 N1         32.8920   62.1410   38.3470 N.am      1 0QB        -0.2703
     36 C2         33.2300   61.3470   39.4030 C.2       1 0QB         0.1844
     37 O2         33.3560   60.0740   39.3260 O.2       1 0QB        -0.3965
     38 C3         33.6080   62.1480   40.6410 C.3       1 0QB         0.0791
     39 C4         33.2880   63.6170   40.1620 C.3       1 0QB        -0.0051
     40 C5         32.8100   63.5250   38.6600 C.3       1 0QB         0.0524
     41 CM1        32.4770   61.6360   37.0810 C.3       1 0QB         0.0232
     42 CM2        31.3000   63.8770   38.4600 C.3       1 0QB        -0.0390
     43 CM3        33.6980   64.4360   37.7510 C.3       1 0QB        -0.0390
     44 H1         40.3140   61.6196   47.7887 H         1 0QB         0.0488
     45 H2         41.5364   60.4198   47.2478 H         1 0QB         0.0488
     46 H3         40.3049   59.9581   48.4713 H         1 0QB         0.0488
     47 H4         38.8999   58.6374   45.1805 H         1 0QB         0.0719
     48 H5         41.1182   57.5169   45.0812 H         1 0QB         0.0274
     49 H6         41.7558   58.6860   46.2867 H         1 0QB         0.0274
     50 H7         41.2343   59.2609   44.6668 H         1 0QB         0.0274
     51 H8         40.9441   56.6948   47.1045 H         1 0QB         0.0557
     52 H9         37.3684   58.8453   47.4846 H         1 0QB         0.0557
     53 H10        40.2945   55.3082   48.9833 H         1 0QB         0.0599
     54 H11        36.6939   57.4033   49.3061 H         1 0QB         0.0599
     55 H12        38.1469   55.6321   50.0558 H         1 0QB         0.0559
     56 H13        37.0117   62.4507   44.5664 H         1 0QB         0.0582
     57 H14        36.7732   59.9846   45.4773 H         1 0QB         0.0532
     58 H15        38.1833   59.5933   44.4356 H         1 0QB         0.0532
     59 H16        38.4236   60.9607   42.2720 H         1 0QB         0.0425
     60 H17        39.4036   61.7037   43.5813 H         1 0QB         0.0425
     61 H18        37.5591   62.4283   40.4846 H         1 0QB         0.0432
     62 H19        38.7257   66.7728   43.6722 H         1 0QB         0.1863
     63 H20        38.1269   67.3278   42.0860 H         1 0QB         0.1863
     64 H21        31.8729   61.2490   41.6258 H         1 0QB         0.0644
     65 H22        34.0639   59.9006   42.0537 H         1 0QB         0.0583
     66 H23        32.0319   59.3120   43.2878 H         1 0QB         0.0291
     67 H24        32.1706   60.7626   44.3382 H         1 0QB         0.0291
     68 H25        34.6013   59.5319   44.8317 H         1 0QB         0.0302
     69 H26        31.9046   58.9678   46.2240 H         1 0QB         0.0268
     70 H27        33.0356   60.3109   46.6030 H         1 0QB         0.0268
     71 H28        33.2334   58.4204   48.2505 H         1 0QB         0.0265
     72 H29        34.7618   58.6795   47.3430 H         1 0QB         0.0265
     73 H30        32.6322   56.5357   46.7546 H         1 0QB         0.0265
     74 H31        34.2573   56.2552   47.4667 H         1 0QB         0.0265
     75 H32        34.2294   55.7480   44.9962 H         1 0QB         0.0265
     76 H33        35.3397   57.1069   45.3801 H         1 0QB         0.0265
     77 H34        33.9752   57.6260   43.3523 H         1 0QB         0.0268
     78 H35        32.4657   57.3742   44.2930 H         1 0QB         0.0268
     79 H36        34.6168   62.0126   44.1418 H         1 0QB         0.1855
     80 H37        32.1051   62.5407   43.5470 H         1 0QB         0.2101
     81 H38        34.6833   62.0453   40.8485 H         1 0QB         0.0565
     82 H39        34.1908   64.2414   40.2325 H         1 0QB         0.0318
     83 H40        32.4921   64.0515   40.7847 H         1 0QB         0.0318
     84 H41        32.6263   60.5465   37.0540 H         1 0QB         0.0486
     85 H42        33.0722   62.1074   36.2851 H         1 0QB         0.0486
     86 H43        31.4121   61.8640   36.9264 H         1 0QB         0.0486
     87 H44        31.1392   64.9422   38.6826 H         1 0QB         0.0255
     88 H45        30.6877   63.2643   39.1380 H         1 0QB         0.0255
     89 H46        31.0105   63.6723   37.4187 H         1 0QB         0.0255
     90 H47        33.5786   65.4861   38.0561 H         1 0QB         0.0255
     91 H48        33.3874   64.3214   36.7020 H         1 0QB         0.0255
     92 H49        34.7527   64.1415   37.8554 H         1 0QB         0.0255
@<TRIPOS>BOND
     1    2    1 am 
     2    1    4 1  
     3    1    5 1  
     4    2    3 2  
     5   16    2 1  
     6    5    6 1  
     7    5    7 1  
     8    7    8 ar 
     9    7    9 ar 
    10    8   10 ar 
    11    9   11 ar 
    12   10   12 ar 
    13   11   12 ar 
    14   13   14 2  
    15   13   15 1  
    16   33   13 am 
    17   15   16 1  
    18   15   17 1  
    19   17   18 1  
    20   18   19 2  
    21   18   22 1  
    22   19   20 1  
    23   21   20 1  
    24   22   21 2  
    25   21   23 1  
    26   24   25 1  
    27   24   34 1  
    28   38   24 1  
    29   25   26 1  
    30   25   33 1  
    31   26   27 1  
    32   27   28 1  
    33   27   32 1  
    34   28   29 1  
    35   29   30 1  
    36   31   30 1  
    37   32   31 1  
    38   36   35 am 
    39   35   40 1  
    40   35   41 1  
    41   36   37 2  
    42   36   38 1  
    43   38   39 1  
    44   39   40 1  
    45   40   42 1  
    46   40   43 1  
    47    4   44 1  
    48    4   45 1  
    49    4   46 1  
    50    5   47 1  
    51    6   48 1  
    52    6   49 1  
    53    6   50 1  
    54    8   51 1  
    55    9   52 1  
    56   10   53 1  
    57   11   54 1  
    58   12   55 1  
    59   15   56 1  
    60   16   57 1  
    61   16   58 1  
    62   17   59 1  
    63   17   60 1  
    64   19   61 1  
    65   23   62 1  
    66   23   63 1  
    67   24   64 1  
    68   25   65 1  
    69   26   66 1  
    70   26   67 1  
    71   27   68 1  
    72   28   69 1  
    73   28   70 1  
    74   29   71 1  
    75   29   72 1  
    76   30   73 1  
    77   30   74 1  
    78   31   75 1  
    79   31   76 1  
    80   32   77 1  
    81   32   78 1  
    82   33   79 1  
    83   34   80 1  
    84   38   81 1  
    85   39   82 1  
    86   39   83 1  
    87   41   84 1  
    88   41   85 1  
    89   41   86 1  
    90   42   87 1  
    91   42   88 1  
    92   42   89 1  
    93   43   90 1  
    94   43   91 1  
    95   43   92 1  
@<TRIPOS>SUBSTRUCTURE
     1 0QB         1

