### 
### Created by X-TOOL on Mon Sep 10 21:12:47 2018
### 

@<TRIPOS>MOLECULE
1bio_ligand
   18    18     1     0     0
SMALL
GAST_HUCK


@<TRIPOS>ATOM
      1 C4          5.7960    6.1640    1.3760 C.ar      1 SOA         0.0003
      2 C3          4.9310    7.2920    1.3110 C.ar      1 SOA         0.0399
      3 C2          3.5380    7.1320    1.5370 C.ar      1 SOA        -0.0510
      4 C1          3.0040    5.8500    1.8220 C.ar      1 SOA        -0.0807
      5 C5          5.2520    4.8810    1.6710 C.ar      1 SOA        -0.0696
      6 C6          3.8540    4.7270    1.8880 C.ar      1 SOA        -0.0819
      7 N11         5.4260    8.5250    1.0370 N.pl3     1 SOA        -0.3400
      8 C12         7.3320    6.3120    1.1450 C.3       1 SOA         0.0748
      9 O1          8.0200    7.4990    0.7780 O.3       1 SOA        -0.3848
     10 H1          2.8809    7.9930    1.4914 H         1 SOA         0.0493
     11 H2          1.9395    5.7328    1.9896 H         1 SOA         0.0525
     12 H3          5.9057    4.0183    1.7305 H         1 SOA         0.0520
     13 H4          3.4431    3.7474    2.1038 H         1 SOA         0.0487
     14 H5          6.4350    8.6499    0.8718 H         1 SOA         0.1697
     15 H6          4.7929    9.3363    0.9941 H         1 SOA         0.1697
     16 H7          7.5738    5.5856    0.3552 H         1 SOA         0.0694
     17 H8          7.7954    5.9936    2.0904 H         1 SOA         0.0694
     18 H9          7.8806    8.1630    1.4430 H         1 SOA         0.2122
@<TRIPOS>BOND
     1    1    2 ar 
     2    1    5 ar 
     3    1    8 1  
     4    2    3 ar 
     5    2    7 1  
     6    3    4 ar 
     7    4    6 ar 
     8    5    6 ar 
     9    8    9 1  
    10    3   10 1  
    11    4   11 1  
    12    5   12 1  
    13    6   13 1  
    14    7   14 1  
    15    7   15 1  
    16    8   16 1  
    17    8   17 1  
    18    9   18 1  
@<TRIPOS>SUBSTRUCTURE
     1 SOA         1

