### 
### Created by X-TOOL on Mon Sep 10 21:12:47 2018
### 

@<TRIPOS>MOLECULE
1biw_ligand
   66    66     1     0     0
SMALL
GAST_HUCK


@<TRIPOS>ATOM
      1 C10         7.7280   48.8860   54.7260 C.2       1 S80         0.2042
      2 O4          7.1300   48.7430   55.7910 O.2       1 S80        -0.3943
      3 N3          9.0640   48.6640   54.5960 N.am      1 S80        -0.2691
      4 C9          9.7910   48.5950   53.3280 C.3       1 S80         0.0340
      5 C8         10.0530   49.9670   52.7000 C.3       1 S80        -0.0323
      6 C7          8.8120   50.5880   52.0720 C.3       1 S80        -0.0470
      7 C6          7.6010   50.7340   52.9270 C.3       1 S80        -0.0123
      8 C5          6.9830   49.5680   53.6070 C.3       1 S80         0.1310
      9 N2          5.5340   49.6070   53.8140 N.am      1 S80        -0.2653
     10 C4          4.6060   48.8100   53.2170 C.2       1 S80         0.1838
     11 C3          3.2000   48.7670   53.6500 C.3       1 S80         0.0685
     12 C2          2.2080   49.3600   52.6880 C.3       1 S80         0.0699
     13 C1          0.8270   49.4610   53.2340 C.2       1 S80         0.2044
     14 O1          0.6530   50.2790   54.1110 O.2       1 S80        -0.3965
     15 N1         -0.2040   48.7210   52.8070 N.am      1 S80        -0.1639
     16 O2         -1.4000   48.9070   53.4850 O.3       1 S80        -0.2717
     17 C11         2.5090   50.1180   51.3890 C.3       1 S80        -0.0288
     18 C12         2.7640   51.5950   51.7610 C.3       1 S80        -0.0273
     19 C13         2.7820   52.5070   50.5140 C.3       1 S80         0.0444
     20 O5          1.4680   52.5610   49.9590 O.3       1 S80        -0.3950
     21 C14         2.7900   47.7390   54.6160 C.3       1 S80        -0.0285
     22 C15         3.1310   47.5590   56.0000 C.3       1 S80        -0.0442
     23 C17         3.0120   48.6560   57.0090 C.3       1 S80        -0.0625
     24 C16         3.0420   46.1870   56.6390 C.3       1 S80        -0.0625
     25 O3          4.8460   48.0310   52.3310 O.2       1 S80        -0.3965
     26 C18         9.9330   48.5750   55.7860 C.3       1 S80         0.0573
     27 C19         9.9770   47.1930   56.4310 C.3       1 S80         0.0676
     28 O6         10.5110   46.2280   55.5420 O.3       1 S80        -0.3810
     29 C20        10.4720   44.9290   56.1410 C.3       1 S80         0.0365
     30 H1          9.2006   47.9949   52.6201 H         1 S80         0.0522
     31 H2         10.7586   48.1035   53.5074 H         1 S80         0.0522
     32 H3         10.8197   49.8533   51.9195 H         1 S80         0.0285
     33 H4         10.4244   50.6444   53.4830 H         1 S80         0.0285
     34 H5          8.5324   49.9635   51.2108 H         1 S80         0.0268
     35 H6          9.0894   51.5931   51.7215 H         1 S80         0.0268
     36 H7          6.8198   51.1685   52.2860 H         1 S80         0.0312
     37 H8          7.8656   51.4500   53.7191 H         1 S80         0.0312
     38 H9          7.0668   48.8129   52.8116 H         1 S80         0.0800
     39 H10         5.1911   50.2889   54.4601 H         1 S80         0.1883
     40 H11         3.2337   49.6079   54.3584 H         1 S80         0.0566
     41 H12         2.0459   48.4081   52.1611 H         1 S80         0.0565
     42 H13        -0.1174   48.0756   52.0480 H         1 S80         0.2216
     43 H14        -2.0659   48.3418   53.1112 H         1 S80         0.2490
     44 H15         1.6507   50.0460   50.7048 H         1 S80         0.0294
     45 H16         3.4007   49.6935   50.9046 H         1 S80         0.0294
     46 H17         3.7355   51.6708   52.2713 H         1 S80         0.0289
     47 H18         1.9665   51.9342   52.4384 H         1 S80         0.0289
     48 H19         3.4806   52.0990   49.7687 H         1 S80         0.0557
     49 H20         3.1026   53.5191   50.8018 H         1 S80         0.0557
     50 H21         1.4724   53.1207   49.1913 H         1 S80         0.2094
     51 H22         3.0985   46.7948   54.1434 H         1 S80         0.0296
     52 H23         1.6920   47.8048   54.6213 H         1 S80         0.0296
     53 H24         4.2215   47.5995   55.8616 H         1 S80         0.0297
     54 H25         3.3280   48.2835   57.9946 H         1 S80         0.0232
     55 H26         1.9663   48.9932   57.0625 H         1 S80         0.0232
     56 H27         3.6542   49.4983   56.7123 H         1 S80         0.0232
     57 H28         3.1341   45.4139   55.8619 H         1 S80         0.0232
     58 H29         2.0725   46.0817   57.1478 H         1 S80         0.0232
     59 H30         3.8548   46.0699   57.3708 H         1 S80         0.0232
     60 H31         9.5662   49.2927   56.5346 H         1 S80         0.0545
     61 H32        10.9557   48.8478   55.4866 H         1 S80         0.0545
     62 H33         8.9558   46.8956   56.7116 H         1 S80         0.0580
     63 H34        10.6066   47.2377   57.3319 H         1 S80         0.0580
     64 H35        10.8890   44.1899   55.4411 H         1 S80         0.0523
     65 H36         9.4304   44.6646   56.3758 H         1 S80         0.0523
     66 H37        11.0667   44.9339   57.0664 H         1 S80         0.0523
@<TRIPOS>BOND
     1    1    2 2  
     2    1    3 am 
     3    1    8 1  
     4    3    4 1  
     5    3   26 1  
     6    4    5 1  
     7    5    6 1  
     8    6    7 1  
     9    7    8 1  
    10    8    9 1  
    11    9   10 am 
    12   10   11 1  
    13   10   25 2  
    14   11   12 1  
    15   11   21 1  
    16   12   13 1  
    17   12   17 1  
    18   13   14 2  
    19   13   15 am 
    20   15   16 1  
    21   17   18 1  
    22   18   19 1  
    23   19   20 1  
    24   21   22 1  
    25   22   23 1  
    26   22   24 1  
    27   26   27 1  
    28   27   28 1  
    29   28   29 1  
    30    4   30 1  
    31    4   31 1  
    32    5   32 1  
    33    5   33 1  
    34    6   34 1  
    35    6   35 1  
    36    7   36 1  
    37    7   37 1  
    38    8   38 1  
    39    9   39 1  
    40   11   40 1  
    41   12   41 1  
    42   15   42 1  
    43   16   43 1  
    44   17   44 1  
    45   17   45 1  
    46   18   46 1  
    47   18   47 1  
    48   19   48 1  
    49   19   49 1  
    50   20   50 1  
    51   21   51 1  
    52   21   52 1  
    53   22   53 1  
    54   23   54 1  
    55   23   55 1  
    56   23   56 1  
    57   24   57 1  
    58   24   58 1  
    59   24   59 1  
    60   26   60 1  
    61   26   61 1  
    62   27   62 1  
    63   27   63 1  
    64   29   64 1  
    65   29   65 1  
    66   29   66 1  
@<TRIPOS>SUBSTRUCTURE
     1 S80         1

