### 
### Created by X-TOOL on Mon Sep 10 21:12:46 2018
### 

@<TRIPOS>MOLECULE
1bji_ligand
   55    56     1     0     0
SMALL
GAST_HUCK


@<TRIPOS>ATOM
      1 C1         23.7040   20.1290   65.2380 C.2       1 DPC         0.0812
      2 O1A        24.3820   21.1730   65.2880 O.co2     1 DPC        -0.5623
      3 O1B        22.5200   20.0760   65.6350 O.co2     1 DPC        -0.5623
      4 C2         24.2850   19.0260   64.6280 C.2       1 DPC         0.1146
      5 C3         23.6200   17.9000   64.2370 C.2       1 DPC        -0.0082
      6 C4         24.2200   17.0020   63.1800 C.3       1 DPC         0.0232
      7 C5         25.6680   16.9470   63.2730 C.3       1 DPC         0.1375
      8 N5         26.3350   16.2020   62.1880 N.am      1 DPC        -0.2720
      9 C10        27.0420   15.0800   62.3280 C.2       1 DPC         0.1737
     10 O10        27.2660   14.5750   63.4110 O.2       1 DPC        -0.3974
     11 C11        27.7040   14.3420   61.2240 C.3       1 DPC         0.0257
     12 C6         26.1640   18.3740   63.3030 C.3       1 DPC         0.1947
     13 O6         25.6120   19.0450   64.3690 O.3       1 DPC        -0.3008
     14 C7         27.6610   18.2750   63.5730 C.2       1 DPC         0.2148
     15 O7         27.9280   17.9720   64.7320 O.2       1 DPC        -0.3935
     16 N8         28.6180   18.4690   62.6520 N.am      1 DPC        -0.2688
     17 C81        30.0060   18.3720   63.1720 C.3       1 DPC         0.0435
     18 C82        30.5980   16.9840   62.9900 C.3       1 DPC         0.0013
     19 CG         32.0180   17.0640   63.4730 C.ar      1 DPC        -0.0411
     20 CD1        32.2970   17.0400   64.8270 C.ar      1 DPC        -0.0603
     21 CD2        33.0810   17.1290   62.5700 C.ar      1 DPC        -0.0603
     22 CE1        33.6060   17.0720   65.2810 C.ar      1 DPC        -0.0686
     23 CE2        34.3940   17.1650   63.0160 C.ar      1 DPC        -0.0686
     24 CZ         34.6500   17.1340   64.3760 C.ar      1 DPC        -0.0687
     25 C9         28.2350   18.8470   61.2970 C.3       1 DPC         0.0339
     26 C91        28.0520   20.4090   61.2910 C.3       1 DPC        -0.0354
     27 C92        29.1410   21.3770   61.6740 C.3       1 DPC        -0.0634
     28 NE         23.7350   15.7120   63.4460 N.4       1 DPC         0.2323
     29 H1         22.6598   17.6495   64.6855 H         1 DPC         0.0510
     30 H2         23.9200   17.3409   62.1774 H         1 DPC         0.0997
     31 H3         25.9305   16.4552   64.2213 H         1 DPC         0.0689
     32 H4         26.2490   16.5723   61.2631 H         1 DPC         0.1861
     33 H5         28.2139   13.4557   61.6295 H         1 DPC         0.0467
     34 H6         28.4402   14.9968   60.7349 H         1 DPC         0.0467
     35 H7         26.9487   14.0263   60.4893 H         1 DPC         0.0467
     36 H8         25.9492   18.8919   62.3566 H         1 DPC         0.0917
     37 H9         29.9990   18.6150   64.2448 H         1 DPC         0.0545
     38 H10        30.6355   19.0974   62.6358 H         1 DPC         0.0545
     39 H11        30.5725   16.6953   61.9289 H         1 DPC         0.0446
     40 H12        30.0348   16.2490   63.5837 H         1 DPC         0.0446
     41 H13        31.4829   16.9957   65.5413 H         1 DPC         0.0557
     42 H14        32.8774   17.1516   61.5055 H         1 DPC         0.0557
     43 H15        33.8115   17.0484   66.3451 H         1 DPC         0.0599
     44 H16        35.2117   17.2169   62.3063 H         1 DPC         0.0599
     45 H17        35.6732   17.1584   64.7332 H         1 DPC         0.0559
     46 H18        27.2911   18.3549   61.0198 H         1 DPC         0.0522
     47 H19        29.0227   18.5561   60.5865 H         1 DPC         0.0522
     48 H20        27.2135   20.6157   61.9722 H         1 DPC         0.0282
     49 H21        27.7631   20.6735   60.2631 H         1 DPC         0.0282
     50 H22        28.7635   22.4066   61.5874 H         1 DPC         0.0230
     51 H23        30.0021   21.2446   61.0025 H         1 DPC         0.0230
     52 H24        29.4525   21.1868   62.7117 H         1 DPC         0.0230
     53 H25        22.7286   15.7132   63.3898 H         1 DPC         0.2008
     54 H26        24.0194   15.4302   64.3710 H         1 DPC         0.2008
     55 H27        24.1086   15.0662   62.7682 H         1 DPC         0.2008
@<TRIPOS>BOND
     1    4    1 1  
     2    1    3 ar 
     3    1    2 ar 
     4    4   13 1  
     5    4    5 2  
     6    5    6 1  
     7    6   28 1  
     8    6    7 1  
     9    7   12 1  
    10    7    8 1  
    11    8    9 am 
    12    9   11 1  
    13    9   10 2  
    14   12   14 1  
    15   12   13 1  
    16   14   16 am 
    17   14   15 2  
    18   16   25 1  
    19   16   17 1  
    20   17   18 1  
    21   18   19 1  
    22   19   21 ar 
    23   19   20 ar 
    24   20   22 ar 
    25   22   24 ar 
    26   24   23 ar 
    27   21   23 ar 
    28   25   26 1  
    29   26   27 1  
    30    5   29 1  
    31    6   30 1  
    32    7   31 1  
    33    8   32 1  
    34   11   33 1  
    35   11   34 1  
    36   11   35 1  
    37   12   36 1  
    38   17   37 1  
    39   17   38 1  
    40   18   39 1  
    41   18   40 1  
    42   20   41 1  
    43   21   42 1  
    44   22   43 1  
    45   23   44 1  
    46   24   45 1  
    47   25   46 1  
    48   25   47 1  
    49   26   48 1  
    50   26   49 1  
    51   27   50 1  
    52   27   51 1  
    53   27   52 1  
    54   28   53 1  
    55   28   54 1  
    56   28   55 1  
@<TRIPOS>SUBSTRUCTURE
     1 DPC         1

