### 
### Created by X-TOOL on Mon Sep 10 21:12:46 2018
### 

@<TRIPOS>MOLECULE
1bjv_ligand
   45    47     1     0     0
SMALL
GAST_HUCK


@<TRIPOS>ATOM
      1 N1         -2.8490   13.8230   13.8080 N.pl3     1 GP8        -0.2738
      2 N2         -1.9970   12.0070   14.9800 N.pl3     1 GP8        -0.2738
      3 C1         -2.3230   13.3130   14.9280 C.cat     1 GP8         0.2271
      4 C2         -1.8640   14.1660   15.9640 C.ar      1 GP8         0.0100
      5 C3         -1.8980   15.5640   15.8270 C.ar      1 GP8        -0.0705
      6 C4         -1.5020   16.4100   16.8650 C.ar      1 GP8        -0.0415
      7 C5         -1.0560   15.8700   18.0800 C.ar      1 GP8         0.0671
      8 C6         -1.0040   14.4810   18.2520 C.ar      1 GP8        -0.0415
      9 C7         -1.4040   13.6530   17.1990 C.ar      1 GP8        -0.0705
     10 N3         -0.6740   16.6870   19.0840 N.am      1 GP8        -0.2147
     11 C8          0.2590   17.6460   19.0030 C.2       1 GP8         0.3144
     12 O1          0.8290   17.9300   17.9320 O.2       1 GP8        -0.3813
     13 N4          0.5700   18.2810   20.1300 N.am      1 GP8        -0.2200
     14 C9          1.4490   19.2740   20.2580 C.ar      1 GP8         0.0574
     15 C10         1.0310   20.4010   20.9650 C.ar      1 GP8        -0.0482
     16 C11         1.9630   21.4130   21.1970 C.ar      1 GP8        -0.0412
     17 C12         3.2830   21.2900   20.7240 C.ar      1 GP8         0.1011
     18 C13         3.6670   20.1370   20.0250 C.ar      1 GP8        -0.0412
     19 C14         2.7440   19.1120   19.7820 C.ar      1 GP8        -0.0482
     20 O2          4.2000   22.2810   20.9260 O.3       1 GP8        -0.2674
     21 C15         4.7560   22.7430   22.0830 C.ar      1 GP8         0.1124
     22 C16         5.7950   23.6730   21.9850 C.ar      1 GP8        -0.0292
     23 C17         6.3920   24.1850   23.1360 C.ar      1 GP8        -0.0700
     24 C18         5.9560   23.7720   24.3940 C.ar      1 GP8        -0.0726
     25 C19         4.9230   22.8390   24.5010 C.ar      1 GP8        -0.0700
     26 C20         4.3200   22.3230   23.3510 C.ar      1 GP8        -0.0292
     27 H1         -3.1794   13.1947   13.0617 H         1 GP8         0.3179
     28 H2         -2.9234   14.8438   13.6924 H         1 GP8         0.3179
     29 H3         -1.5920   11.6112   15.8403 H         1 GP8         0.3179
     30 H4         -2.1527   11.4043   14.1594 H         1 GP8         0.3179
     31 H5         -2.2397   15.9960   14.8934 H         1 GP8         0.0576
     32 H6         -1.5394   17.4851   16.7315 H         1 GP8         0.0501
     33 H7         -0.6590   14.0546   19.1870 H         1 GP8         0.0501
     34 H8         -1.3600   12.5783   17.3341 H         1 GP8         0.0576
     35 H9         -1.1274   16.5661   19.9671 H         1 GP8         0.2261
     36 H10         0.0988   17.9845   20.9607 H         1 GP8         0.2229
     37 H11         0.0118   20.4882   21.3238 H         1 GP8         0.0479
     38 H12         1.6684   22.3004   21.7455 H         1 GP8         0.0517
     39 H13         4.6864   20.0380   19.6698 H         1 GP8         0.0517
     40 H14         3.0315   18.2191   19.2388 H         1 GP8         0.0479
     41 H15         6.1381   23.9976   21.0093 H         1 GP8         0.0549
     42 H16         7.1972   24.9060   23.0526 H         1 GP8         0.0590
     43 H17         6.4184   24.1747   25.2879 H         1 GP8         0.0525
     44 H18         4.5877   22.5139   25.4792 H         1 GP8         0.0590
     45 H19         3.5171   21.5998   23.4369 H         1 GP8         0.0549
@<TRIPOS>BOND
     1    1    3 ar 
     2    3    4 1  
     3    4    5 ar 
     4    4    9 ar 
     5    5    6 ar 
     6    6    7 ar 
     7    7    8 ar 
     8    7   10 1  
     9    8    9 ar 
    10   10   11 am 
    11   11   12 2  
    12   11   13 am 
    13   13   14 1  
    14   14   15 ar 
    15   14   19 ar 
    16   15   16 ar 
    17   16   17 ar 
    18   17   18 ar 
    19   17   20 1  
    20   18   19 ar 
    21   20   21 1  
    22   21   22 ar 
    23   21   26 ar 
    24   22   23 ar 
    25   23   24 ar 
    26   24   25 ar 
    27   25   26 ar 
    28    3    2 ar 
    29    1   27 1  
    30    1   28 1  
    31    2   29 1  
    32    2   30 1  
    33    5   31 1  
    34    6   32 1  
    35    8   33 1  
    36    9   34 1  
    37   10   35 1  
    38   13   36 1  
    39   15   37 1  
    40   16   38 1  
    41   18   39 1  
    42   19   40 1  
    43   22   41 1  
    44   23   42 1  
    45   24   43 1  
    46   25   44 1  
    47   26   45 1  
@<TRIPOS>SUBSTRUCTURE
     1 GP8         1

