### 
### Created by X-TOOL on Mon Sep 10 21:12:47 2018
### 

@<TRIPOS>MOLECULE
1bky_ligand
   16    16     1     0     0
SMALL
GAST_HUCK


@<TRIPOS>ATOM
      1 N3         18.4620   14.3930   19.9330 N.2       1 1MC        -0.2775
      2 C4         18.5980   13.0500   19.9160 C.2       1 1MC         0.0850
      3 N1         16.7750   14.4510   21.6720 N.am      1 1MC        -0.1982
      4 CN1        15.8510   15.1680   22.5430 C.3       1 1MC         0.0610
      5 C2         17.5970   14.9970   20.7610 C.2       1 1MC         0.2487
      6 O2         17.5310   16.3820   20.6740 O.2       1 1MC        -0.4067
      7 N4         19.4340   12.4620   19.0680 N.pl3     1 1MC        -0.3156
      8 C5         17.7940   12.3450   20.8290 C.2       1 1MC         0.0082
      9 C6         16.9210   13.1190   21.6630 C.2       1 1MC         0.0764
     10 H1         15.3144   14.4490   23.1794 H         1 1MC         0.0607
     11 H2         15.1279   15.7262   21.9303 H         1 1MC         0.0607
     12 H3         16.4137   15.8695   23.1764 H         1 1MC         0.0607
     13 H4         19.5282   11.4363   19.0655 H         1 1MC         0.1833
     14 H5         19.9882   13.0317   18.4128 H         1 1MC         0.1833
     15 H6         17.8325   11.2590   20.8997 H         1 1MC         0.0373
     16 H7         16.3073   12.5611   22.3688 H         1 1MC         0.1327
@<TRIPOS>BOND
     1    5    1 1  
     2    1    2 2  
     3    2    8 1  
     4    2    7 1  
     5    8    9 2  
     6    9    3 am 
     7    3    5 am 
     8    3    4 1  
     9    5    6 2  
    10    4   10 1  
    11    4   11 1  
    12    4   12 1  
    13    7   13 1  
    14    7   14 1  
    15    8   15 1  
    16    9   16 1  
@<TRIPOS>SUBSTRUCTURE
     1 1MC         1

