### 
### Created by X-TOOL on Mon Sep 10 21:12:46 2018
### 

@<TRIPOS>MOLECULE
1bl4_ligand
   96    99     1     0     0
SMALL
GAST_HUCK


@<TRIPOS>ATOM
      1 C1          6.5130    1.1850   -3.4200 C.2       1 AP1         0.2621
      2 C2          5.0160    1.5050   -3.4870 C.3       1 AP1         0.1451
      3 C3          4.0720    0.7010   -2.5580 C.3       1 AP1        -0.0108
      4 C4          4.0060   -0.7900   -3.0250 C.3       1 AP1        -0.0469
      5 C5          3.4390   -0.8850   -4.4630 C.3       1 AP1        -0.0321
      6 C6          4.3100   -0.0500   -5.4230 C.3       1 AP1         0.0369
      7 C8          4.4860    2.4000   -5.7520 C.2       1 AP1         0.1934
      8 C9          4.0740    2.1860   -7.2080 C.3       1 AP1         0.0723
      9 C10         5.2780    1.7120   -8.0250 C.ar      1 AP1        -0.0489
     10 C11         6.4360    2.5060   -8.1080 C.ar      1 AP1        -0.0481
     11 C12         7.5810    2.0460   -8.7940 C.ar      1 AP1         0.1052
     12 C13         7.5420    0.7970   -9.4140 C.ar      1 AP1         0.1397
     13 C14         6.3750    0.0000   -9.3550 C.ar      1 AP1         0.1052
     14 O15         6.3520   -1.2400   -9.9810 O.3       1 AP1        -0.3297
     15 C16         2.0590    3.7820   -7.1820 C.3       1 AP1        -0.0614
     16 O17         8.7460    2.8080   -8.8680 O.3       1 AP1        -0.3297
     17 C18         5.3220   -2.1900   -9.6560 C.3       1 AP1         0.0563
     18 C19         8.7060    0.6920  -11.4940 C.3       1 AP1         0.0527
     19 C20         8.8100    4.0970   -8.2310 C.3       1 AP1         0.0563
     20 C21        12.4770    1.2830    1.2960 C.3       1 AP1         0.0554
     21 C22         8.2750   -1.2250   -6.5440 C.ar      1 AP1        -0.0686
     22 C23         8.2480   -2.5460   -7.0220 C.ar      1 AP1        -0.0771
     23 C24         8.4320   -3.6130   -6.1390 C.ar      1 AP1        -0.0399
     24 C25         8.4890   -0.9420   -5.1890 C.ar      1 AP1        -0.0186
     25 C26         8.4950    0.4960   -4.6400 C.3       1 AP1         0.1207
     26 C27         9.3220    1.4810   -5.5120 C.3       1 AP1        -0.0041
     27 C28        10.8290    1.4840   -5.1660 C.3       1 AP1        -0.0222
     28 C29        11.1830    1.6610   -3.6810 C.ar      1 AP1        -0.0624
     29 C30        11.3100    2.9570   -3.1730 C.ar      1 AP1        -0.0398
     30 C31        11.6380    3.1750   -1.8220 C.ar      1 AP1         0.1132
     31 C32        11.8430    2.0830   -0.9640 C.ar      1 AP1         0.1122
     32 C33        11.7160    0.7820   -1.4670 C.ar      1 AP1        -0.0479
     33 C34        11.3890    0.5790   -2.8110 C.ar      1 AP1        -0.0801
     34 C35         8.6500   -3.3630   -4.7680 C.ar      1 AP1         0.0868
     35 O36         8.8190   -4.4130   -3.8280 O.3       1 AP1        -0.3057
     36 C37         9.9960   -5.2510   -3.7220 C.3       1 AP1         0.1224
     37 C38        10.4530   -5.6720   -5.1030 C.2       1 AP1         0.0653
     38 O39        11.5000   -5.1490   -5.5780 O.co2     1 AP1        -0.5662
     39 O40         9.7610   -6.5390   -5.7260 O.co2     1 AP1        -0.5662
     40 C41         8.6770   -2.0240   -4.3100 C.ar      1 AP1        -0.0293
     41 C42        11.1230    5.5950   -1.8920 C.3       1 AP1         0.0568
     42 N7          4.5320    1.3440   -4.9000 N.am      1 AP1        -0.2487
     43 O43         7.0840    0.8510   -4.5990 O.3       1 AP1        -0.2586
     44 O44         7.0900    1.2300   -2.3480 O.2       1 AP1        -0.3676
     45 O45         4.7630    3.5220   -5.3860 O.2       1 AP1        -0.3938
     46 C46         3.4470    3.4820   -7.8060 C.3       1 AP1        -0.0282
     47 C47         5.2510    0.4690   -8.6630 C.ar      1 AP1        -0.0481
     48 O48         8.6710    0.3420  -10.0960 O.3       1 AP1        -0.3340
     49 O49        11.7730    4.4680   -1.2870 O.3       1 AP1        -0.3266
     50 O50        12.1730    2.3510    0.3760 O.3       1 AP1        -0.3294
     51 H1          4.9109    2.5629   -3.2047 H         1 AP1         0.0819
     52 H2          3.0639    1.1394   -2.5951 H         1 AP1         0.0314
     53 H3          4.4525    0.7434   -1.5268 H         1 AP1         0.0314
     54 H4          3.3549   -1.3547   -2.3415 H         1 AP1         0.0268
     55 H5          5.0182   -1.2201   -3.0062 H         1 AP1         0.0268
     56 H6          2.4088   -0.4996   -4.4758 H         1 AP1         0.0285
     57 H7          3.4415   -1.9359   -4.7880 H         1 AP1         0.0285
     58 H8          3.8071    0.0111   -6.3994 H         1 AP1         0.0524
     59 H9          5.2847   -0.5456   -5.5429 H         1 AP1         0.0524
     60 H10         3.3090    1.3961   -7.2369 H         1 AP1         0.0672
     61 H11         6.4495    3.4834   -7.6394 H         1 AP1         0.0369
     62 H12         1.6481    4.7005   -7.6263 H         1 AP1         0.0233
     63 H13         2.1667    3.9167   -6.0956 H         1 AP1         0.0233
     64 H14         1.3779    2.9417   -7.3816 H         1 AP1         0.0233
     65 H15         5.4679   -3.1057  -10.2477 H         1 AP1         0.0572
     66 H16         4.3376   -1.7570   -9.8872 H         1 AP1         0.0572
     67 H17         5.3729   -2.4338   -8.5846 H         1 AP1         0.0572
     68 H18         9.6256    0.2947  -11.9485 H         1 AP1         0.0565
     69 H19         8.6889    1.7869  -11.5984 H         1 AP1         0.0565
     70 H20         7.8304    0.2614  -12.0018 H         1 AP1         0.0565
     71 H21         9.8024    4.5405   -8.3997 H         1 AP1         0.0572
     72 H22         8.6392    3.9810   -7.1506 H         1 AP1         0.0572
     73 H23         8.0375    4.7548   -8.6559 H         1 AP1         0.0572
     74 H24        12.7067    1.7055    2.2853 H         1 AP1         0.0570
     75 H25        13.3461    0.7181    0.9278 H         1 AP1         0.0570
     76 H26        11.6101    0.6107    1.3768 H         1 AP1         0.0570
     77 H27         8.1269   -0.4067   -7.2393 H         1 AP1         0.0465
     78 H28         8.0843   -2.7374   -8.0764 H         1 AP1         0.0572
     79 H29         8.4072   -4.6322   -6.5072 H         1 AP1         0.0486
     80 H30         8.9148    0.5044   -3.6233 H         1 AP1         0.0814
     81 H31         8.9270    2.4966   -5.3621 H         1 AP1         0.0336
     82 H32         9.2065    1.1947   -6.5678 H         1 AP1         0.0336
     83 H33        11.3000    2.3068   -5.7238 H         1 AP1         0.0406
     84 H34        11.2521    0.5252   -5.5000 H         1 AP1         0.0406
     85 H35        11.1537    3.8059   -3.8288 H         1 AP1         0.0450
     86 H36        11.8715   -0.0686   -0.8133 H         1 AP1         0.0493
     87 H37        11.2928   -0.4327   -3.1882 H         1 AP1         0.0436
     88 H38         9.7551   -6.1455   -3.1288 H         1 AP1         0.0785
     89 H39        10.8012   -4.6885   -3.2268 H         1 AP1         0.0785
     90 H40         8.8465   -1.8278   -3.2575 H         1 AP1         0.0479
     91 H41        11.3583    6.5046   -1.3199 H         1 AP1         0.0573
     92 H42        10.0349    5.4337   -1.8931 H         1 AP1         0.0573
     93 H43        11.4776    5.7108   -2.9268 H         1 AP1         0.0573
     94 H44         3.3305    3.3544   -8.8923 H         1 AP1         0.0309
     95 H45         4.1193    4.3294   -7.6064 H         1 AP1         0.0309
     96 H46         4.3532   -0.1370   -8.6221 H         1 AP1         0.0369
@<TRIPOS>BOND
     1    1   44 2  
     2    1   43 1  
     3    1    2 1  
     4    2   42 1  
     5    2    3 1  
     6    3    4 1  
     7    4    5 1  
     8    5    6 1  
     9    6   42 1  
    10   42    7 am 
    11    7   45 2  
    12    7    8 1  
    13    8   46 1  
    14    8    9 1  
    15    9   47 ar 
    16    9   10 ar 
    17   10   11 ar 
    18   11   16 1  
    19   11   12 ar 
    20   12   48 1  
    21   12   13 ar 
    22   13   47 ar 
    23   13   14 1  
    24   14   17 1  
    25   48   18 1  
    26   16   19 1  
    27   46   15 1  
    28   43   25 1  
    29   25   26 1  
    30   25   24 1  
    31   24   40 ar 
    32   24   21 ar 
    33   21   22 ar 
    34   22   23 ar 
    35   23   34 ar 
    36   34   40 ar 
    37   34   35 1  
    38   35   36 1  
    39   36   37 1  
    40   37   39 ar 
    41   37   38 ar 
    42   26   27 1  
    43   27   28 1  
    44   28   33 ar 
    45   28   29 ar 
    46   29   30 ar 
    47   30   49 1  
    48   30   31 ar 
    49   31   50 1  
    50   31   32 ar 
    51   32   33 ar 
    52   50   20 1  
    53   49   41 1  
    54    2   51 1  
    55    3   52 1  
    56    3   53 1  
    57    4   54 1  
    58    4   55 1  
    59    5   56 1  
    60    5   57 1  
    61    6   58 1  
    62    6   59 1  
    63    8   60 1  
    64   10   61 1  
    65   15   62 1  
    66   15   63 1  
    67   15   64 1  
    68   17   65 1  
    69   17   66 1  
    70   17   67 1  
    71   18   68 1  
    72   18   69 1  
    73   18   70 1  
    74   19   71 1  
    75   19   72 1  
    76   19   73 1  
    77   20   74 1  
    78   20   75 1  
    79   20   76 1  
    80   21   77 1  
    81   22   78 1  
    82   23   79 1  
    83   25   80 1  
    84   26   81 1  
    85   26   82 1  
    86   27   83 1  
    87   27   84 1  
    88   29   85 1  
    89   32   86 1  
    90   33   87 1  
    91   36   88 1  
    92   36   89 1  
    93   40   90 1  
    94   41   91 1  
    95   41   92 1  
    96   41   93 1  
    97   46   94 1  
    98   46   95 1  
    99   47   96 1  
@<TRIPOS>SUBSTRUCTURE
     1 AP1         1

