### 
### Created by X-TOOL on Mon Sep 10 21:12:47 2018
### 

@<TRIPOS>MOLECULE
1bl6_ligand
   38    41     1     0     0
SMALL
GAST_HUCK


@<TRIPOS>ATOM
      1 FA1         7.9390   10.9520   30.2500 F         1 SB6        -0.1852
      2 CA1         6.2980   12.3920   31.2320 C.ar      1 SB6        -0.0305
      3 CA2         6.6870   11.4820   30.2200 C.ar      1 SB6         0.1299
      4 CA3         5.7760   11.1240   29.1840 C.ar      1 SB6        -0.0305
      5 CA4         4.4670   11.6800   29.1780 C.ar      1 SB6        -0.0598
      6 CA5         4.0450   12.6090   30.2120 C.ar      1 SB6        -0.0242
      7 CA6         4.9960   12.9490   31.2300 C.ar      1 SB6        -0.0598
      8 CB1         0.2710    9.1030   28.8640 C.ar      1 SB6         0.0057
      9 NB2         0.6480    8.2870   29.8690 N.ar      1 SB6        -0.3041
     10 CB3         1.2490    8.7450   30.9850 C.ar      1 SB6         0.0057
     11 CB4         1.5150   10.1290   31.1540 C.ar      1 SB6        -0.0293
     12 CB5         1.1360   11.0470   30.1130 C.ar      1 SB6         0.0217
     13 CB6         0.4990   10.5010   28.9430 C.ar      1 SB6        -0.0293
     14 NC1         0.3390   13.4600   30.3260 N.pl3     1 SB6        -0.2371
     15 CC2         1.3880   12.4630   30.2470 C.2       1 SB6         0.1027
     16 CC3         2.7190   13.1680   30.2370 C.2       1 SB6         0.0409
     17 NC4         2.5030   14.5560   30.3210 N.2       1 SB6        -0.3073
     18 CC5         1.1320   14.6060   30.3640 C.2       1 SB6         0.1057
     19 CD1        -1.1850   13.4020   30.3410 C.3       1 SB6         0.0624
     20 CE1        -1.8380   13.2980   28.9070 C.3       1 SB6        -0.0128
     21 CE2        -1.0040   13.4460   27.6070 C.3       1 SB6        -0.0473
     22 CE3        -1.9320   14.5780   28.0580 C.3       1 SB6        -0.0473
     23 H1          6.9999   12.6638   32.0121 H         1 SB6         0.0598
     24 H2          6.0788   10.4326   28.4059 H         1 SB6         0.0598
     25 H3          3.7741   11.4066   28.3904 H         1 SB6         0.0586
     26 H4          4.7133   13.6446   32.0118 H         1 SB6         0.0586
     27 H5         -0.2111    8.6867   27.9869 H         1 SB6         0.0806
     28 H6          1.5331    8.0469   31.7641 H         1 SB6         0.0806
     29 H7          1.9973   10.4895   32.0554 H         1 SB6         0.0687
     30 H8          0.1966   11.1517   28.1305 H         1 SB6         0.0687
     31 H9          0.6452   15.5779   30.4303 H         1 SB6         0.1289
     32 H10        -1.5611   14.3144   30.8269 H         1 SB6         0.0624
     33 H11        -1.4919   12.5221   30.9254 H         1 SB6         0.0624
     34 H12        -2.6713   12.5805   28.9356 H         1 SB6         0.0328
     35 H13        -1.2572   12.8474   26.7196 H         1 SB6         0.0269
     36 H14         0.0871   13.5730   27.6646 H         1 SB6         0.0269
     37 H15        -1.5052   15.5188   28.4358 H         1 SB6         0.0269
     38 H16        -2.8496   14.7933   27.4908 H         1 SB6         0.0269
@<TRIPOS>BOND
     1    1    3 1  
     2    3    2 ar 
     3    3    4 ar 
     4    4    5 ar 
     5    5    6 ar 
     6    6   16 1  
     7    6    7 ar 
     8    7    2 ar 
     9   16   17 1  
    10   16   15 2  
    11   15   14 1  
    12   15   12 1  
    13   12   13 ar 
    14   12   11 ar 
    15   11   10 ar 
    16   10    9 ar 
    17    9    8 ar 
    18    8   13 ar 
    19   14   18 1  
    20   14   19 1  
    21   19   20 1  
    22   20   22 1  
    23   20   21 1  
    24   21   22 1  
    25   18   17 2  
    26    2   23 1  
    27    4   24 1  
    28    5   25 1  
    29    7   26 1  
    30    8   27 1  
    31   10   28 1  
    32   11   29 1  
    33   13   30 1  
    34   18   31 1  
    35   19   32 1  
    36   19   33 1  
    37   20   34 1  
    38   21   35 1  
    39   21   36 1  
    40   22   37 1  
    41   22   38 1  
@<TRIPOS>SUBSTRUCTURE
     1 SB6         1

