### 
### Created by X-TOOL on Mon Sep 10 21:12:47 2018
### 

@<TRIPOS>MOLECULE
1bl7_ligand
   45    48     1     0     0
SMALL
GAST_HUCK


@<TRIPOS>ATOM
      1 CA1        -0.7150   13.9340   31.0480 C.3       1 SB4         0.0186
      2 CA2        -2.2560   14.0530   31.0450 C.3       1 SB4        -0.0308
      3 NA3        -2.7750   15.2930   30.3480 N.4       1 SB4         0.2271
      4 CA4        -2.1910   15.6130   28.9920 C.3       1 SB4        -0.0308
      5 CA5        -0.6460   15.4360   28.9680 C.3       1 SB4         0.0186
      6 CA6        -0.1460   14.1020   29.6150 C.3       1 SB4         0.0804
      7 CB1         5.3620   11.7460   28.8610 C.ar      1 SB4        -0.0583
      8 CB2         6.5890   11.0630   29.0130 C.ar      1 SB4        -0.0294
      9 CB3         7.3730   11.2740   30.1640 C.ar      1 SB4         0.1310
     10 CB4         6.9400   12.1690   31.1760 C.ar      1 SB4        -0.0294
     11 CB5         5.7110   12.8560   31.0300 C.ar      1 SB4        -0.0583
     12 CB6         4.8890   12.6620   29.8690 C.ar      1 SB4        -0.0208
     13 FB7         8.5510   10.6150   30.3030 F         1 SB4        -0.1843
     14 CC1         2.2910   10.5090   30.5950 C.ar      1 SB4        -0.0212
     15 CC2         1.7660   11.5090   29.6870 C.ar      1 SB4         0.0712
     16 NC3         0.7890   11.1550   28.7880 N.ar      1 SB4        -0.2583
     17 CC4         0.3490    9.8990   28.7720 C.ar      1 SB4         0.1794
     18 NC5         0.7740    8.9170   29.5640 N.ar      1 SB4        -0.2627
     19 CC6         1.7370    9.2020   30.4730 C.ar      1 SB4         0.0073
     20 NC7        -0.5830    9.6050   27.9020 N.pl3     1 SB4        -0.3045
     21 ND1         1.3580   13.9970   29.6610 N.pl3     1 SB4        -0.2316
     22 CD2         2.2980   15.0140   29.6890 C.2       1 SB4         0.1086
     23 ND3         3.6240   14.7740   29.7430 N.2       1 SB4        -0.3026
     24 CD4         3.6470   13.3730   29.7540 C.2       1 SB4         0.0462
     25 CD5         2.2430   12.8750   29.6980 C.2       1 SB4         0.1151
     26 H1         -0.2944   14.7163   31.6969 H         1 SB4         0.0348
     27 H2         -0.4307   12.9444   31.4351 H         1 SB4         0.0348
     28 H3         -2.6039   14.0712   32.0884 H         1 SB4         0.0815
     29 H4         -2.6704   13.1705   30.5356 H         1 SB4         0.0815
     30 H5         -2.5922   16.0798   30.9510 H         1 SB4         0.2013
     31 H6         -3.7702   15.1826   30.2320 H         1 SB4         0.2013
     32 H7         -2.4332   16.6554   28.7377 H         1 SB4         0.0815
     33 H8         -2.6374   14.9401   28.2450 H         1 SB4         0.0815
     34 H9         -0.1934   16.2761   29.5151 H         1 SB4         0.0348
     35 H10        -0.3119   15.4582   27.9202 H         1 SB4         0.0348
     36 H11        -0.5220   13.2737   28.9965 H         1 SB4         0.0662
     37 H12         4.7658   11.5786   27.9713 H         1 SB4         0.0595
     38 H13         6.9270   10.3771   28.2446 H         1 SB4         0.0601
     39 H14         7.5488   12.3264   32.0589 H         1 SB4         0.0601
     40 H15         5.3856   13.5388   31.8065 H         1 SB4         0.0595
     41 H16         3.0593   10.7415   31.3235 H         1 SB4         0.0638
     42 H17         2.0959    8.4142   31.1254 H         1 SB4         0.0868
     43 H18        -0.9560    8.6463   27.8510 H         1 SB4         0.1824
     44 H19        -0.9437   10.3323   27.2681 H         1 SB4         0.1824
     45 H20         1.9531   16.0467   29.6666 H         1 SB4         0.1311
@<TRIPOS>BOND
     1    1    6 1  
     2    1    2 1  
     3    2    3 1  
     4    3    4 1  
     5    4    5 1  
     6    5    6 1  
     7    6   21 1  
     8   21   25 1  
     9   21   22 1  
    10   22   23 2  
    11   23   24 1  
    12   24   25 2  
    13   24   12 1  
    14   12   11 ar 
    15   12    7 ar 
    16    7    8 ar 
    17    8    9 ar 
    18    9   13 1  
    19    9   10 ar 
    20   10   11 ar 
    21   25   15 1  
    22   15   16 ar 
    23   15   14 ar 
    24   14   19 ar 
    25   19   18 ar 
    26   18   17 ar 
    27   17   20 1  
    28   17   16 ar 
    29    1   26 1  
    30    1   27 1  
    31    2   28 1  
    32    2   29 1  
    33    3   30 1  
    34    3   31 1  
    35    4   32 1  
    36    4   33 1  
    37    5   34 1  
    38    5   35 1  
    39    6   36 1  
    40    7   37 1  
    41    8   38 1  
    42   10   39 1  
    43   11   40 1  
    44   14   41 1  
    45   19   42 1  
    46   20   43 1  
    47   20   44 1  
    48   22   45 1  
@<TRIPOS>SUBSTRUCTURE
     1 SB4         1

