### 
### Created by X-TOOL on Mon Sep 10 21:12:47 2018
### 

@<TRIPOS>MOLECULE
1bm6_ligand
   50    51     1     0     0
SMALL
GAST_HUCK


@<TRIPOS>ATOM
      1 NA         -1.6310    0.7510    0.8530 N.am      1 HAV        -0.2008
      2 CA         -2.4850   -0.3800    0.4250 C.3       1 HAV         0.1355
      3 CB         -2.6800   -1.2620    1.6390 C.3       1 HAV        -0.0093
      4 CG1        -3.1730   -2.6440    1.2100 C.3       1 HAV        -0.0588
      5 CG2        -3.7090   -0.6140    2.5650 C.3       1 HAV        -0.0588
      6 C          -1.7960   -1.1870   -0.6890 C.2       1 HAV         0.2213
      7 O          -0.6210   -1.0400   -0.9570 O.2       1 HAV        -0.3948
      8 O1         -1.9810   -2.8210   -2.3560 O.3       1 HAV        -0.2717
      9 N          -2.5400   -2.0350   -1.3490 N.am      1 HAV        -0.1626
     10 H1         -3.4545   -0.0065    0.0638 H         1 HAV         0.0760
     11 H2         -1.7231   -1.3674    2.1711 H         1 HAV         0.0339
     12 H3         -3.3113   -3.2763    2.0994 H         1 HAV         0.0234
     13 H4         -2.4313   -3.1071    0.5427 H         1 HAV         0.0234
     14 H5         -4.1312   -2.5431    0.6794 H         1 HAV         0.0234
     15 H6         -3.3515    0.3800    2.8719 H         1 HAV         0.0234
     16 H7         -3.8492   -1.2443    3.4556 H         1 HAV         0.0234
     17 H8         -4.6668   -0.5113    2.0340 H         1 HAV         0.0234
     18 H9         -1.6203   -2.2588   -3.0315 H         1 HAV         0.2490
     19 H10        -3.5123   -2.1203   -1.1313 H         1 HAV         0.2217
     20 CB         -0.2070    0.3900    1.1270 C.3       1 3MP         0.0721
     21 CG          0.1120    0.7340    2.5600 C.ar      1 3MP         0.0038
     22 CD1        -0.7440    1.5370    3.2970 C.ar      1 3MP        -0.0389
     23 CD2         1.2730    0.2410    3.1680 C.ar      1 3MP         0.0141
     24 CE1        -0.4090    1.8190    4.6120 C.ar      1 3MP        -0.0404
     25 CZ          0.7730    1.2850    5.1410 C.ar      1 3MP         0.0042
     26 NE2         1.6060    0.5080    4.4380 N.ar      1 3MP        -0.3044
     27 H11         0.4543    0.9560    0.4545 H         1 3MP         0.0659
     28 H12        -0.0604   -0.6879    0.9637 H         1 3MP         0.0659
     29 H13        -1.6515    1.9340    2.8566 H         1 3MP         0.0678
     30 H14         1.9346   -0.3873    2.5827 H         1 3MP         0.0766
     31 H15        -1.0519    2.4433    5.2218 H         1 3MP         0.0693
     32 H16         1.0256    1.5122    6.1704 H         1 3MP         0.0767
     33 S          -1.8470    2.1640    0.0700 S.o2      1 MSB         0.0697
     34 OB1        -1.4340    3.1920    0.9660 O.2       1 MSB        -0.1512
     35 OB2        -3.2030    2.1710   -0.3540 O.2       1 MSB        -0.1512
     36 CG         -0.8490    2.1840   -1.3690 C.ar      1 MSB         0.0975
     37 CD1        -1.4510    1.9840   -2.6060 C.ar      1 MSB        -0.0440
     38 CD2         0.5190    2.4090   -1.2690 C.ar      1 MSB        -0.0440
     39 CE1        -0.6800    2.0170   -3.7660 C.ar      1 MSB        -0.0313
     40 CE2         1.3040    2.4340   -2.4280 C.ar      1 MSB        -0.0313
     41 CZ          0.6990    2.2420   -3.6800 C.ar      1 MSB         0.0908
     42 OH          1.4550    2.2850   -4.8300 O.3       1 MSB        -0.3212
     43 CH          0.8670    2.9780   -5.9220 C.3       1 MSB         0.0594
     44 H17        -2.5180    1.8028   -2.6679 H         1 MSB         0.0608
     45 H18         0.9759    2.5644   -0.2983 H         1 MSB         0.0608
     46 H19        -1.1469    1.8688   -4.7330 H         1 MSB         0.0542
     47 H20         2.3729    2.6007   -2.3589 H         1 MSB         0.0542
     48 H21         1.5504    2.9518   -6.7836 H         1 MSB         0.0577
     49 H22         0.6791    4.0231   -5.6347 H         1 MSB         0.0577
     50 H23        -0.0837    2.4957   -6.1933 H         1 MSB         0.0577
@<TRIPOS>BOND
     1    1    2 1  
     2    1   20 1  
     3    1   33 am 
     4    2    3 1  
     5    2    6 1  
     6    2   10 1  
     7    3    4 1  
     8    3    5 1  
     9    3   11 1  
    10    4   12 1  
    11    4   13 1  
    12    4   14 1  
    13    5   15 1  
    14    5   16 1  
    15    5   17 1  
    16    6    7 2  
    17    6    9 am 
    18    9    8 1  
    19    8   18 1  
    20    9   19 1  
    21   20   21 1  
    22   20   27 1  
    23   20   28 1  
    24   21   22 ar 
    25   21   23 ar 
    26   22   24 ar 
    27   22   29 1  
    28   23   26 ar 
    29   23   30 1  
    30   24   25 ar 
    31   24   31 1  
    32   25   26 ar 
    33   25   32 1  
    34   33   34 2  
    35   33   35 2  
    36   33   36 1  
    37   36   37 ar 
    38   36   38 ar 
    39   37   39 ar 
    40   37   44 1  
    41   38   40 ar 
    42   38   45 1  
    43   39   41 ar 
    44   39   46 1  
    45   40   41 ar 
    46   40   47 1  
    47   41   42 1  
    48   42   43 1  
    49   43   48 1  
    50   43   49 1  
    51   43   50 1  
@<TRIPOS>SUBSTRUCTURE
     1 HAV         1

