### 
### Created by X-TOOL on Mon Sep 10 21:12:46 2018
### 

@<TRIPOS>MOLECULE
1bm7_ligand
   29    30     1     0     0
SMALL
GAST_HUCK


@<TRIPOS>ATOM
      1 C1         20.6990   41.8890    3.6790 C.ar      1 FLF         0.0318
      2 O1         22.1040   42.6810    1.8300 O.co2     1 FLF        -0.5647
      3 C2         19.9260   41.0650    2.8420 C.ar      1 FLF        -0.0579
      4 C3         18.8260   40.3700    3.3310 C.ar      1 FLF        -0.0704
      5 O2         22.4850   43.4790    3.7410 O.co2     1 FLF        -0.5647
      6 C4         18.4910   40.4910    4.6800 C.ar      1 FLF        -0.0696
      7 C5         19.2550   41.3040    5.5150 C.ar      1 FLF        -0.0360
      8 C6         20.3730   42.0190    5.0170 C.ar      1 FLF         0.0733
      9 C7         21.8500   42.6210    3.1450 C.2       1 FLF         0.0568
     10 N          21.1820   42.8760    5.8280 N.pl3     1 FLF        -0.2670
     11 C1'        21.3260   43.0600    7.2240 C.ar      1 FLF         0.0885
     12 C2'        21.1170   41.9060    7.9620 C.ar      1 FLF        -0.0104
     13 C3'        21.2220   41.9380    9.3210 C.ar      1 FLF         0.0370
     14 C4'        21.5400   43.1240   10.0140 C.ar      1 FLF        -0.0423
     15 C5'        21.7530   44.2990    9.2750 C.ar      1 FLF        -0.0405
     16 C6'        21.6480   44.2720    7.8830 C.ar      1 FLF        -0.0099
     17 C7'        20.9890   40.6720   10.0870 C.3       1 FLF         0.3736
     18 F1         21.2360   39.5570    9.3790 F         1 FLF        -0.2207
     19 F2         21.7360   40.5430   11.1880 F         1 FLF        -0.2207
     20 F3         19.7230   40.5290   10.5020 F         1 FLF        -0.2207
     21 H1         20.1929   40.9700    1.7957 H         1 FLF         0.0619
     22 H2         18.2362   39.7422    2.6729 H         1 FLF         0.0521
     23 H3         17.6379   39.9535    5.0779 H         1 FLF         0.0607
     24 H4         18.9900   41.3910    6.5625 H         1 FLF         0.0537
     25 H5         21.7931   43.4941    5.2753 H         1 FLF         0.2099
     26 H6         20.8701   40.9780    7.4590 H         1 FLF         0.0744
     27 H7         21.6185   43.1287   11.0952 H         1 FLF         0.0764
     28 H8         21.9982   45.2242    9.7838 H         1 FLF         0.0671
     29 H9         21.8124   45.1761    7.3080 H         1 FLF         0.0783
@<TRIPOS>BOND
     1    1    9 1  
     2    1    8 ar 
     3    1    3 ar 
     4    3    4 ar 
     5    4    6 ar 
     6    6    7 ar 
     7    7    8 ar 
     8    8   10 1  
     9   10   11 1  
    10   11   16 ar 
    11   11   12 ar 
    12   12   13 ar 
    13   13   17 1  
    14   13   14 ar 
    15   14   15 ar 
    16   15   16 ar 
    17    9    2 ar 
    18    9    5 ar 
    19   17   18 1  
    20   17   20 1  
    21   17   19 1  
    22    3   21 1  
    23    4   22 1  
    24    6   23 1  
    25    7   24 1  
    26   10   25 1  
    27   12   26 1  
    28   14   27 1  
    29   15   28 1  
    30   16   29 1  
@<TRIPOS>SUBSTRUCTURE
     1 FLF         1

