### 
### Created by X-TOOL on Mon Sep 10 21:12:45 2018
### 

@<TRIPOS>MOLECULE
1bma_ligand
   73    74     1     0     0
SMALL
GAST_HUCK


@<TRIPOS>ATOM
      1 C1         41.1490   23.3540   37.6440 C.2       1 0QH         0.3031
      2 C2         41.3470   24.6160   38.5620 C.3       1 0QH         0.4751
      3 O          40.7380   23.4660   36.4830 O.2       1 0QH        -0.3349
      4 F1         41.8710   24.3920   39.7540 F         1 0QH        -0.1699
      5 F2         42.1300   25.5370   38.0580 F         1 0QH        -0.1699
      6 F3         40.2100   25.2310   38.7870 F         1 0QH        -0.1699
      7 N          41.4280   22.1360   38.1490 N.am      1 0QH        -0.2575
      8 CA         40.8000   20.9190   37.7020 C.3       1 0QH         0.1358
      9 C          39.3070   21.0480   37.4350 C.2       1 0QH         0.2391
     10 O          38.5140   21.5650   38.2110 O.2       1 0QH        -0.3898
     11 CB         41.1000   19.8690   38.7470 C.3       1 0QH        -0.0097
     12 CG         41.2800   18.4430   38.2880 C.3       1 0QH        -0.0425
     13 CD1        42.2250   18.3330   37.0870 C.3       1 0QH        -0.0625
     14 CD2        41.8110   17.6760   39.4790 C.3       1 0QH        -0.0625
     15 N1         37.7730   20.6860   35.4060 N.4       1 0QH         0.3974
     16 N2         39.1210   20.5680   36.1900 N.am      1 0QH        -0.2448
     17 C          37.7120   22.1170   34.9400 C.3       1 0QH         0.0311
     18 C1         36.5220   22.5540   34.0800 C.ar      1 0QH         0.0024
     19 C2         35.7530   23.6410   34.4900 C.ar      1 0QH        -0.0553
     20 C3         34.7240   24.0770   33.6770 C.ar      1 0QH        -0.0684
     21 C4         34.4260   23.4610   32.4590 C.ar      1 0QH        -0.0687
     22 C5         35.1790   22.3730   32.0390 C.ar      1 0QH        -0.0684
     23 C6         36.2250   21.9230   32.8500 C.ar      1 0QH        -0.0553
     24 C1M        38.1600   19.7130   34.3160 C.3       1 0QH        -0.0121
     25 CA2        36.5310   20.2380   36.1060 C.3       1 0QH         0.0922
     26 CA1        36.5440   18.8920   36.8120 C.2       1 0QH         0.2484
     27 O          36.6680   17.7920   36.2510 O.2       1 0QH        -0.3798
     28 C1         36.1950   18.3510   39.0700 C.ar      1 0QH         0.0598
     29 N1         36.4320   19.2410   38.1030 N.am      1 0QH        -0.2334
     30 C2         36.8200   17.0940   39.1380 C.ar      1 0QH        -0.0473
     31 C3         36.5290   16.2290   40.2070 C.ar      1 0QH        -0.0730
     32 C4         35.6130   16.6130   41.2160 C.ar      1 0QH        -0.0550
     33 C5         35.0070   17.8720   41.1250 C.ar      1 0QH        -0.0730
     34 C6         35.2900   18.7230   40.0590 C.ar      1 0QH        -0.0473
     35 C1'        35.2730   15.6970   42.4140 C.3       1 0QH        -0.0199
     36 C2'        35.7420   14.2420   42.2510 C.3       1 0QH        -0.0548
     37 C3'        33.7770   15.6910   42.5010 C.3       1 0QH        -0.0548
     38 H1         42.1110   22.0734   38.8767 H         1 0QH         0.1891
     39 H2         41.2728   20.6172   36.7558 H         1 0QH         0.0804
     40 H3         40.2690   19.8780   39.4676 H         1 0QH         0.0315
     41 H4         42.0287   20.1688   39.2545 H         1 0QH         0.0315
     42 H5         40.3028   18.0315   37.9950 H         1 0QH         0.0298
     43 H6         42.3222   17.2776   36.7924 H         1 0QH         0.0232
     44 H7         43.2137   18.7297   37.3608 H         1 0QH         0.0232
     45 H8         41.8175   18.9125   36.2455 H         1 0QH         0.0232
     46 H9         41.1105   17.7757   40.3212 H         1 0QH         0.0232
     47 H10        42.7920   18.0809   39.7682 H         1 0QH         0.0232
     48 H11        41.9165   16.6137   39.2137 H         1 0QH         0.0232
     49 H12        39.8887   20.1101   35.7416 H         1 0QH         0.2386
     50 H13        38.6235   22.3073   34.3543 H         1 0QH         0.0990
     51 H14        37.7142   22.7518   35.8384 H         1 0QH         0.0990
     52 H15        35.9585   24.1369   35.4318 H         1 0QH         0.0558
     53 H16        34.1284   24.9251   33.9949 H         1 0QH         0.0599
     54 H17        33.6120   23.8303   31.8458 H         1 0QH         0.0559
     55 H18        34.9597   21.8808   31.0984 H         1 0QH         0.0599
     56 H19        36.8193   21.0748   32.5300 H         1 0QH         0.0558
     57 H20        38.1842   18.6929   34.7268 H         1 0QH         0.0787
     58 H21        39.1548   19.9751   33.9267 H         1 0QH         0.0787
     59 H22        37.4226   19.7628   33.5013 H         1 0QH         0.0787
     60 H23        35.7287   20.2030   35.3543 H         1 0QH         0.1077
     61 H24        36.2915   20.9996   36.8627 H         1 0QH         0.1077
     62 H25        36.5298   20.2049   38.3505 H         1 0QH         0.2236
     63 H26        37.5231   16.7931   38.3698 H         1 0QH         0.0487
     64 H27        37.0103   15.2591   40.2594 H         1 0QH         0.0520
     65 H28        34.3099   18.1880   41.8926 H         1 0QH         0.0520
     66 H29        34.7987   19.6875   39.9993 H         1 0QH         0.0487
     67 H30        35.7150   16.1144   43.3307 H         1 0QH         0.0428
     68 H31        35.4607   13.6639   43.1436 H         1 0QH         0.0251
     69 H32        36.8351   14.2205   42.1297 H         1 0QH         0.0251
     70 H33        35.2657   13.8005   41.3632 H         1 0QH         0.0251
     71 H34        33.4124   16.7222   42.6184 H         1 0QH         0.0251
     72 H35        33.4625   15.0901   43.3670 H         1 0QH         0.0251
     73 H36        33.3579   15.2564   41.5815 H         1 0QH         0.0251
@<TRIPOS>BOND
     1    1    3 2  
     2    1    2 1  
     3    2    6 1  
     4    2    5 1  
     5    2    4 1  
     6    9    8 1  
     7    8   11 1  
     8    8    7 1  
     9   11   12 1  
    10   12   14 1  
    11   12   13 1  
    12    9   10 2  
    13   25   15 1  
    14   15   24 1  
    15   15   17 1  
    16   15   16 1  
    17   17   18 1  
    18   18   23 ar 
    19   18   19 ar 
    20   19   20 ar 
    21   20   21 ar 
    22   22   21 ar 
    23   23   22 ar 
    24   26   25 1  
    25   26   27 2  
    26   28   34 ar 
    27   28   30 ar 
    28   29   28 1  
    29   30   31 ar 
    30   31   32 ar 
    31   32   35 1  
    32   33   32 ar 
    33   34   33 ar 
    34   35   37 1  
    35   35   36 1  
    36    7    1 am 
    37   16    9 am 
    38   29   26 am 
    39    7   38 1  
    40    8   39 1  
    41   11   40 1  
    42   11   41 1  
    43   12   42 1  
    44   13   43 1  
    45   13   44 1  
    46   13   45 1  
    47   14   46 1  
    48   14   47 1  
    49   14   48 1  
    50   16   49 1  
    51   17   50 1  
    52   17   51 1  
    53   19   52 1  
    54   20   53 1  
    55   21   54 1  
    56   22   55 1  
    57   23   56 1  
    58   24   57 1  
    59   24   58 1  
    60   24   59 1  
    61   25   60 1  
    62   25   61 1  
    63   29   62 1  
    64   30   63 1  
    65   31   64 1  
    66   33   65 1  
    67   34   66 1  
    68   35   67 1  
    69   36   68 1  
    70   36   69 1  
    71   36   70 1  
    72   37   71 1  
    73   37   72 1  
    74   37   73 1  
@<TRIPOS>SUBSTRUCTURE
     1 0QH         1

