### 
### Created by X-TOOL on Mon Sep 10 21:12:47 2018
### 

@<TRIPOS>MOLECULE
1bmk_ligand
   39    42     1     0     0
SMALL
GAST_HUCK


@<TRIPOS>ATOM
      1 FA1         7.9730   10.8540   30.2870 F         1 SB5        -0.1843
      2 CA1         6.1150   12.2490   30.9310 C.ar      1 SB5        -0.0294
      3 CA2         6.7560   11.3940   29.9950 C.ar      1 SB5         0.1310
      4 CA3         6.1390   11.1000   28.7550 C.ar      1 SB5        -0.0294
      5 CA4         4.8850   11.6620   28.4500 C.ar      1 SB5        -0.0583
      6 CA5         4.2110   12.5330   29.3760 C.ar      1 SB5        -0.0208
      7 CA6         4.8530   12.8140   30.6230 C.ar      1 SB5        -0.0583
      8 CB1         1.3490    8.9140   30.2800 C.ar      1 SB5         0.0073
      9 NB2         0.4240    8.4160   29.4220 N.ar      1 SB5        -0.2627
     10 CB3        -0.0610    9.2200   28.4870 C.ar      1 SB5         0.1794
     11 NB4         0.2760   10.4940   28.3020 N.ar      1 SB5        -0.2583
     12 CB5         1.2100   11.0670   29.1360 C.ar      1 SB5         0.0711
     13 CB6         1.7970   10.2620   30.1980 C.ar      1 SB5        -0.0212
     14 NB7        -0.9520    8.7080   27.6830 N.pl3     1 SB5        -0.3045
     15 NC1         0.6660   13.4540   28.3860 N.pl3     1 SB5        -0.2348
     16 CC2         1.5780   12.4660   28.9450 C.2       1 SB5         0.1149
     17 CC3         2.9460   13.0940   29.0270 C.2       1 SB5         0.0461
     18 NC4         2.8720   14.4160   28.5630 N.2       1 SB5        -0.3026
     19 CC5         1.5560   14.5090   28.2300 C.2       1 SB5         0.1083
     20 CD1        -0.7750   13.3790   27.8760 C.3       1 SB5         0.0628
     21 CE1        -1.0900   14.3700   26.7220 C.3       1 SB5        -0.0128
     22 CE2        -2.0560   13.9220   25.6200 C.3       1 SB5        -0.0473
     23 CE3        -0.5680   14.0230   25.3210 C.3       1 SB5        -0.0473
     24 H1          6.5910   12.4688   31.8798 H         1 SB5         0.0601
     25 H2          6.6299   10.4453   28.0440 H         1 SB5         0.0601
     26 H3          4.4178   11.4341   27.4987 H         1 SB5         0.0595
     27 H4          4.3684   13.4665   31.3403 H         1 SB5         0.0595
     28 H5          1.7577    8.2679   31.0485 H         1 SB5         0.0868
     29 H6          2.5316   10.6657   30.8853 H         1 SB5         0.0638
     30 H7         -1.3645    9.2856   26.9366 H         1 SB5         0.1824
     31 H8         -1.2429    7.7263   27.7947 H         1 SB5         0.1824
     32 H9          1.1852   15.4492   27.8245 H         1 SB5         0.1311
     33 H10        -1.4508   13.5997   28.7154 H         1 SB5         0.0625
     34 H11        -0.9611   12.3569   27.5144 H         1 SB5         0.0625
     35 H12        -1.0914   15.4069   27.0891 H         1 SB5         0.0328
     36 H13        -2.7556   14.6453   25.1757 H         1 SB5         0.0269
     37 H14        -2.5381   12.9351   25.6803 H         1 SB5         0.0269
     38 H15         0.0245   13.1093   25.1661 H         1 SB5         0.0269
     39 H16        -0.1929   14.8195   24.6615 H         1 SB5         0.0269
@<TRIPOS>BOND
     1    1    3 1  
     2    3    2 ar 
     3    3    4 ar 
     4    4    5 ar 
     5    5    6 ar 
     6    6   17 1  
     7    6    7 ar 
     8    7    2 ar 
     9   17   18 1  
    10   17   16 2  
    11   16   15 1  
    12   16   12 1  
    13   12   13 ar 
    14   12   11 ar 
    15   11   10 ar 
    16   10   14 1  
    17   10    9 ar 
    18    9    8 ar 
    19    8   13 ar 
    20   15   19 1  
    21   15   20 1  
    22   20   21 1  
    23   21   23 1  
    24   21   22 1  
    25   22   23 1  
    26   19   18 2  
    27    2   24 1  
    28    4   25 1  
    29    5   26 1  
    30    7   27 1  
    31    8   28 1  
    32   13   29 1  
    33   14   30 1  
    34   14   31 1  
    35   19   32 1  
    36   20   33 1  
    37   20   34 1  
    38   21   35 1  
    39   22   36 1  
    40   22   37 1  
    41   23   38 1  
    42   23   39 1  
@<TRIPOS>SUBSTRUCTURE
     1 SB5         1

