### 
### Created by X-TOOL on Mon Sep 10 21:12:45 2018
### 

@<TRIPOS>MOLECULE
1bmm_ligand
   68    70     1     0     0
SMALL
GAST_HUCK


@<TRIPOS>ATOM
      1 C1         10.9130   47.9230   22.0170 C.ar      1 BM2         0.1089
      2 C2         11.3460   48.8200   21.1460 C.ar      1 BM2        -0.0274
      3 C3         12.8900   50.4720   20.8230 C.ar      1 BM2        -0.0540
      4 C4         13.9140   51.1740   21.4530 C.ar      1 BM2        -0.0612
      5 C5         14.3090   51.1210   22.8050 C.ar      1 BM2        -0.0612
      6 C6         13.6510   50.3150   23.6070 C.ar      1 BM2        -0.0540
      7 C7         12.1090   48.6970   23.6530 C.ar      1 BM2        -0.0522
      8 C8         11.3060   47.9150   23.1990 C.ar      1 BM2        -0.0345
      9 C9         12.2510   49.6820   21.6080 C.ar      1 BM2        -0.0160
     10 C10        12.6360   49.6140   22.9540 C.ar      1 BM2        -0.0178
     11 S11         9.9810   46.5140   21.7150 S.o2      1 BM2         0.0705
     12 O12         8.6800   46.8860   21.1350 O.2       1 BM2        -0.1501
     13 O13         9.5740   45.9630   22.9530 O.2       1 BM2        -0.1501
     14 N14        10.6350   45.5750   20.9180 N.am      1 BM2        -0.2232
     15 C15        11.5470   44.8970   21.3590 C.3       1 BM2         0.1493
     16 C16        11.8980   43.6900   20.5610 C.3       1 BM2         0.0809
     17 O17        10.6850   43.0680   20.4350 O.3       1 BM2        -0.3907
     18 C18        12.6480   45.7050   20.9680 C.2       1 BM2         0.2028
     19 O19        12.5100   46.1940   19.7730 O.2       1 BM2        -0.3947
     20 N20        13.7350   45.6210   21.8180 N.am      1 BM2        -0.2666
     21 C21        13.7420   45.0740   23.2630 C.3       1 BM2         0.0344
     22 C22        15.0590   44.5900   23.3910 C.3       1 BM2        -0.0304
     23 C23        15.6000   45.6250   22.6470 C.3       1 BM2        -0.0259
     24 C24        14.9560   45.9150   21.4080 C.3       1 BM2         0.0651
     25 C25        15.4120   44.9070   20.5350 C.3       1 BM2         0.0540
     26 N26        15.1800   44.7030   19.0280 N.am      1 BM2        -0.2847
     27 C27        14.8680   43.5620   18.2060 C.2       1 BM2         0.1762
     28 O28        14.8240   42.2270   18.4340 O.2       1 BM2        -0.3971
     29 C29        14.6200   43.7730   16.9250 C.3       1 BM2         0.0404
     30 C30        13.1260   43.7070   16.8620 C.3       1 BM2        -0.0029
     31 C31        12.7030   43.7500   15.5350 C.3       1 BM2         0.0646
     32 N32        11.4210   43.7390   15.3540 N.pl3     1 BM2        -0.2722
     33 C33        10.8980   44.0430   14.1690 C.cat     1 BM2         0.2882
     34 N34        11.7210   44.2910   13.2180 N.pl3     1 BM2        -0.2849
     35 N35         9.6950   43.9820   14.1280 N.pl3     1 BM2        -0.2849
     36 H1         10.9879   48.8516   20.1233 H         1 BM2         0.0643
     37 H2         12.6547   50.5818   19.7706 H         1 BM2         0.0624
     38 H3         14.4810   51.8488   20.8220 H         1 BM2         0.0618
     39 H4         15.1301   51.7264   23.1715 H         1 BM2         0.0618
     40 H5         13.8726   50.2061   24.6625 H         1 BM2         0.0624
     41 H6         12.3887   48.6106   24.6967 H         1 BM2         0.0624
     42 H7         10.9026   47.1590   23.8629 H         1 BM2         0.0637
     43 H8         10.3505   45.4556   19.9668 H         1 BM2         0.1706
     44 H9         11.4424   44.6893   22.4341 H         1 BM2         0.0777
     45 H10        12.6194   43.0540   21.0949 H         1 BM2         0.0602
     46 H11        12.3092   43.9661   19.5788 H         1 BM2         0.0602
     47 H12        10.7909   42.2688   19.9325 H         1 BM2         0.2097
     48 H13        13.0062   44.2658   23.3872 H         1 BM2         0.0522
     49 H14        13.5374   45.8715   23.9925 H         1 BM2         0.0522
     50 H15        15.2060   43.6010   22.9325 H         1 BM2         0.0285
     51 H16        15.4159   44.5686   24.4312 H         1 BM2         0.0285
     52 H17        16.6474   45.3693   22.4287 H         1 BM2         0.0289
     53 H18        15.5656   46.5351   23.2639 H         1 BM2         0.0289
     54 H19        15.0875   46.9333   21.0135 H         1 BM2         0.0578
     55 H20        15.0401   43.9763   20.9883 H         1 BM2         0.0543
     56 H21        16.5070   44.9495   20.6307 H         1 BM2         0.0543
     57 H22        15.2645   45.5498   18.5029 H         1 BM2         0.1851
     58 H23        15.0779   42.9930   16.2989 H         1 BM2         0.0503
     59 H24        14.9868   44.7603   16.6076 H         1 BM2         0.0503
     60 H25        12.7002   44.5617   17.4080 H         1 BM2         0.0323
     61 H26        12.7829   42.7693   17.3235 H         1 BM2         0.0323
     62 H27        13.1249   42.8760   15.0172 H         1 BM2         0.0690
     63 H28        13.1002   44.6709   15.0833 H         1 BM2         0.0690
     64 H29        10.7987   43.4920   16.1367 H         1 BM2         0.2642
     65 H30        11.3678   44.5316   12.2809 H         1 BM2         0.2615
     66 H31        12.7355   44.2497   13.3910 H         1 BM2         0.2615
     67 H32         9.1606   43.7710   14.9829 H         1 BM2         0.2615
     68 H33         9.2013   44.1409   13.2381 H         1 BM2         0.2615
@<TRIPOS>BOND
     1    2    1 ar 
     2    1    8 ar 
     3    1   11 1  
     4    9    2 ar 
     5    3    4 ar 
     6    3    9 ar 
     7    4    5 ar 
     8    5    6 ar 
     9    6   10 ar 
    10    8    7 ar 
    11    7   10 ar 
    12    9   10 ar 
    13   11   12 2  
    14   11   13 2  
    15   11   14 am 
    16   14   15 1  
    17   15   16 1  
    18   15   18 1  
    19   16   17 1  
    20   18   19 2  
    21   18   20 am 
    22   20   21 1  
    23   20   24 1  
    24   21   22 1  
    25   22   23 1  
    26   23   24 1  
    27   24   25 1  
    28   25   26 1  
    29   26   27 am 
    30   27   28 2  
    31   27   29 1  
    32   29   30 1  
    33   30   31 1  
    34   31   32 1  
    35   32   33 ar 
    36   33   34 ar 
    37   33   35 ar 
    38    2   36 1  
    39    3   37 1  
    40    4   38 1  
    41    5   39 1  
    42    6   40 1  
    43    7   41 1  
    44    8   42 1  
    45   14   43 1  
    46   15   44 1  
    47   16   45 1  
    48   16   46 1  
    49   17   47 1  
    50   21   48 1  
    51   21   49 1  
    52   22   50 1  
    53   22   51 1  
    54   23   52 1  
    55   23   53 1  
    56   24   54 1  
    57   25   55 1  
    58   25   56 1  
    59   26   57 1  
    60   29   58 1  
    61   29   59 1  
    62   30   60 1  
    63   30   61 1  
    64   31   62 1  
    65   31   63 1  
    66   32   64 1  
    67   34   65 1  
    68   34   66 1  
    69   35   67 1  
    70   35   68 1  
@<TRIPOS>SUBSTRUCTURE
     1 BM2         1

