### 
### Created by X-TOOL on Mon Sep 10 21:12:45 2018
### 

@<TRIPOS>MOLECULE
1bmn_ligand
   72    75     1     0     0
SMALL
GAST_HUCK


@<TRIPOS>ATOM
      1 C1         55.5370   19.1170   24.6810 C.ar      1 BM9         0.1089
      2 C2         55.4540   20.3230   25.1070 C.ar      1 BM9        -0.0274
      3 C3         54.2620   22.5190   25.2530 C.ar      1 BM9        -0.0540
      4 C4         53.1930   23.2790   24.8610 C.ar      1 BM9        -0.0612
      5 C5         52.3570   22.7830   23.9360 C.ar      1 BM9        -0.0612
      6 C6         52.5390   21.5670   23.4700 C.ar      1 BM9        -0.0540
      7 C7         53.5880   19.3990   23.3410 C.ar      1 BM9        -0.0522
      8 C8         54.5820   18.6260   23.7830 C.ar      1 BM9        -0.0345
      9 C9         54.4240   21.1480   24.7320 C.ar      1 BM9        -0.0160
     10 C10        53.5240   20.7250   23.8120 C.ar      1 BM9        -0.0178
     11 S11        56.7000   18.2600   25.0930 S.o2      1 BM9         0.0705
     12 O12        56.6300   16.8560   25.0360 O.2       1 BM9        -0.1501
     13 O13        57.1850   18.4850   26.5060 O.2       1 BM9        -0.1501
     14 N14        57.8950   18.7220   23.7340 N.am      1 BM9        -0.2232
     15 C15        58.7780   19.5890   23.5690 C.3       1 BM9         0.1493
     16 C16        59.9170   19.2350   22.7260 C.3       1 BM9         0.0809
     17 O17        60.7850   18.1220   23.4170 O.3       1 BM9        -0.3907
     18 C18        58.0230   20.7270   22.6610 C.2       1 BM9         0.2028
     19 O19        57.4400   20.2500   21.4730 O.2       1 BM9        -0.3947
     20 N20        57.9520   21.8170   22.8970 N.am      1 BM9        -0.2666
     21 C21        58.2300   22.3280   24.1530 C.3       1 BM9         0.0344
     22 C22        57.9250   23.8430   24.1400 C.3       1 BM9        -0.0304
     23 C23        57.0790   24.0950   23.2510 C.3       1 BM9        -0.0259
     24 C24        57.5030   22.9480   22.2540 C.3       1 BM9         0.0651
     25 C25        58.5680   23.5450   21.2600 C.3       1 BM9         0.0541
     26 N26        58.5860   22.4530   20.0900 N.am      1 BM9        -0.2844
     27 C27        59.3950   21.6300   19.8090 C.2       1 BM9         0.1825
     28 O28        60.2050   21.7390   20.5730 O.2       1 BM9        -0.3967
     29 C29        59.4870   20.3580   18.9910 C.3       1 BM9         0.0817
     30 C30        60.6780   19.5970   19.3770 C.3       1 BM9         0.0844
     31 N31        60.6140   18.4390   18.6560 N.pl3     1 BM9        -0.2573
     32 C32        60.3960   18.5600   17.4550 C.3       1 BM9         0.0651
     33 C33        59.4920   19.1930   16.9900 C.3       1 BM9        -0.0172
     34 C34        59.4690   20.4790   17.5640 C.3       1 BM9        -0.0268
     35 C35        60.5970   17.1690   19.2200 C.cat     1 BM9         0.2904
     36 N37        60.6400   16.9040   20.5280 N.pl3     1 BM9        -0.2847
     37 N36        60.6120   16.0540   18.3630 N.pl3     1 BM9        -0.2847
     38 H1         56.2158   20.7001   25.7796 H         1 BM9         0.0643
     39 H2         54.9898   22.9246   25.9465 H         1 BM9         0.0624
     40 H3         53.0254   24.2608   25.2888 H         1 BM9         0.0618
     41 H4         51.5317   23.3847   23.5729 H         1 BM9         0.0618
     42 H5         51.8229   21.2110   22.7382 H         1 BM9         0.0624
     43 H6         52.8527   19.0183   22.6413 H         1 BM9         0.0624
     44 H7         54.6511   17.5998   23.4406 H         1 BM9         0.0637
     45 H8         57.8048   18.1240   22.9376 H         1 BM9         0.1706
     46 H9         59.1245   19.9667   24.5423 H         1 BM9         0.0777
     47 H10        60.5374   20.1282   22.5612 H         1 BM9         0.0602
     48 H11        59.5498   18.8601   21.7593 H         1 BM9         0.0602
     49 H12        60.2519   17.3485   23.5585 H         1 BM9         0.2097
     50 H13        59.2906   22.1644   24.3946 H         1 BM9         0.0522
     51 H14        57.6014   21.8287   24.9050 H         1 BM9         0.0522
     52 H15        58.8503   24.4007   23.9330 H         1 BM9         0.0285
     53 H16        57.5266   24.1444   25.1200 H         1 BM9         0.0285
     54 H17        57.2086   25.0980   22.8185 H         1 BM9         0.0289
     55 H18        56.0452   23.9808   23.6090 H         1 BM9         0.0289
     56 H19        56.6164   22.6580   21.6711 H         1 BM9         0.0578
     57 H20        59.5546   23.6336   21.7383 H         1 BM9         0.0543
     58 H21        58.2538   24.5292   20.8824 H         1 BM9         0.0543
     59 H22        57.7815   22.4658   19.4962 H         1 BM9         0.1851
     60 H23        58.6037   19.7604   19.2606 H         1 BM9         0.0573
     61 H24        60.6645   19.3808   20.4554 H         1 BM9         0.0719
     62 H25        61.5911   20.1569   19.1266 H         1 BM9         0.0719
     63 H26        60.2673   17.5364   17.0732 H         1 BM9         0.0690
     64 H27        61.3119   18.9971   17.0308 H         1 BM9         0.0690
     65 H28        58.5411   18.6816   17.2004 H         1 BM9         0.0301
     66 H29        59.6284   19.2805   15.9020 H         1 BM9         0.0301
     67 H30        60.3510   21.0460   17.2316 H         1 BM9         0.0295
     68 H31        58.5553   21.0054   17.2508 H         1 BM9         0.0295
     69 H32        60.6228   15.9280   20.8566 H         1 BM9         0.2615
     70 H33        60.6903   17.6756   21.2084 H         1 BM9         0.2615
     71 H34        60.5809   16.1885   17.3423 H         1 BM9         0.2615
     72 H35        60.6541   15.1029   18.7561 H         1 BM9         0.2615
@<TRIPOS>BOND
     1    2    1 ar 
     2    1    8 ar 
     3    1   11 1  
     4    9    2 ar 
     5    3    4 ar 
     6    3    9 ar 
     7    4    5 ar 
     8    5    6 ar 
     9    6   10 ar 
    10    8    7 ar 
    11    7   10 ar 
    12    9   10 ar 
    13   11   12 2  
    14   11   13 2  
    15   11   14 am 
    16   14   15 1  
    17   15   16 1  
    18   15   18 1  
    19   16   17 1  
    20   18   19 2  
    21   18   20 am 
    22   20   21 1  
    23   20   24 1  
    24   21   22 1  
    25   22   23 1  
    26   23   24 1  
    27   24   25 1  
    28   25   26 1  
    29   26   27 am 
    30   27   28 2  
    31   27   29 1  
    32   29   30 1  
    33   29   34 1  
    34   30   31 1  
    35   31   32 1  
    36   31   35 ar 
    37   32   33 1  
    38   33   34 1  
    39   35   36 ar 
    40   35   37 ar 
    41    2   38 1  
    42    3   39 1  
    43    4   40 1  
    44    5   41 1  
    45    6   42 1  
    46    7   43 1  
    47    8   44 1  
    48   14   45 1  
    49   15   46 1  
    50   16   47 1  
    51   16   48 1  
    52   17   49 1  
    53   21   50 1  
    54   21   51 1  
    55   22   52 1  
    56   22   53 1  
    57   23   54 1  
    58   23   55 1  
    59   24   56 1  
    60   25   57 1  
    61   25   58 1  
    62   26   59 1  
    63   29   60 1  
    64   30   61 1  
    65   30   62 1  
    66   32   63 1  
    67   32   64 1  
    68   33   65 1  
    69   33   66 1  
    70   34   67 1  
    71   34   68 1  
    72   36   69 1  
    73   36   70 1  
    74   37   71 1  
    75   37   72 1  
@<TRIPOS>SUBSTRUCTURE
     1 BM9         1

