### 
### Created by X-TOOL on Mon Sep 10 21:12:46 2018
### 

@<TRIPOS>MOLECULE
1bmq_ligand
   72    74     1     0     0
SMALL
GAST_HUCK


@<TRIPOS>ATOM
      1 C1         34.2130   70.0440   11.3720 C.ar      1 MNO        -0.0329
      2 C2         34.5360   68.8900   10.5870 C.ar      1 MNO         0.0504
      3 C3         35.7850   68.7480    9.8930 C.ar      1 MNO        -0.0432
      4 C4         36.7550   69.7900    9.9520 C.ar      1 MNO        -0.0509
      5 C5         36.4610   70.9540   10.7180 C.ar      1 MNO        -0.0152
      6 C6         35.1640   71.1030   11.4660 C.ar      1 MNO        -0.0116
      7 C7         34.9430   72.2750   12.2620 C.ar      1 MNO        -0.0517
      8 C8         35.9560   73.3010   12.3350 C.ar      1 MNO        -0.0596
      9 C9         37.1990   73.1710   11.6110 C.ar      1 MNO        -0.0598
     10 C10        37.4430   72.0010   10.8110 C.ar      1 MNO        -0.0524
     11 C11        33.5470   67.8210   10.4700 C.2       1 MNO         0.2069
     12 O1         32.5810   67.6660   11.2140 O.2       1 MNO        -0.3848
     13 N1         33.7680   66.9870    9.4460 N.am      1 MNO        -0.2647
     14 C12        32.9160   65.8570    9.1460 C.3       1 MNO         0.1330
     15 C13        33.8450   64.8570    8.4600 C.2       1 MNO         0.2066
     16 O2         34.7280   65.2450    7.6940 O.2       1 MNO        -0.3942
     17 C14        31.7930   66.2700    8.1690 C.3       1 MNO        -0.0063
     18 C16        30.7730   65.1480    8.0400 C.3       1 MNO        -0.0584
     19 C17        31.1220   67.5450    8.6510 C.3       1 MNO        -0.0584
     20 N2         33.6690   63.5550    8.7410 N.am      1 MNO        -0.2498
     21 C18        34.5310   62.5540    8.1060 C.3       1 MNO         0.1336
     22 C19        34.1510   62.3430    6.6380 C.2       1 MNO         0.2023
     23 O3         32.9680   62.3310    6.2910 O.2       1 MNO        -0.3945
     24 C20        34.3050   61.3000    8.9460 C.3       1 MNO        -0.0104
     25 C21        32.9250   61.4650    9.4930 C.3       1 MNO        -0.0281
     26 C22        32.6900   62.9450    9.6590 C.3       1 MNO         0.0369
     27 N3         35.1990   62.1830    5.7990 N.am      1 MNO        -0.2775
     28 C24        35.4540   62.6050    3.3400 C.3       1 MNO         0.0639
     29 C25        34.3940   63.4640    2.6940 C.2       1 MNO         0.1980
     30 N4         33.2020   62.8630    2.3380 N.am      1 MNO        -0.1585
     31 O5         34.6210   64.6530    2.4930 O.2       1 MNO        -0.3953
     32 C26        34.8940   61.7220    4.4500 C.3       1 MNO         0.0817
     33 S1         31.9200   62.2980    3.3010 S.o2      1 MNO         0.0586
     34 O4         31.4050   63.3940    4.0810 O.2       1 MNO        -0.1510
     35 O7         32.3220   61.1080    4.0020 O.2       1 MNO        -0.1510
     36 C15        30.5750   61.6910    2.2590 C.3       1 MNO         0.0780
     37 O6         34.3580   59.4410    3.8250 O.3       1 MNO        -0.3926
     38 C27        35.4060   60.2890    4.2820 C.3       1 MNO         0.0692
     39 H1         33.2612   70.1114   11.8863 H         1 MNO         0.0695
     40 H2         35.9899   67.8482    9.3243 H         1 MNO         0.0652
     41 H3         37.6976   69.6986    9.4245 H         1 MNO         0.0627
     42 H4         34.0145   72.3907   12.8094 H         1 MNO         0.0636
     43 H5         35.7812   74.1819   12.9421 H         1 MNO         0.0622
     44 H6         37.9465   73.9538   11.6705 H         1 MNO         0.0630
     45 H7         38.3785   71.9070   10.2714 H         1 MNO         0.0626
     46 H8         34.5609   67.1534    8.8599 H         1 MNO         0.1876
     47 H9         32.4812   65.4343   10.0637 H         1 MNO         0.0802
     48 H10        32.2366   66.4580    7.1801 H         1 MNO         0.0343
     49 H11        29.9788   65.4529    7.3426 H         1 MNO         0.0234
     50 H12        30.3337   64.9366    9.0261 H         1 MNO         0.0234
     51 H13        31.2691   64.2436    7.6580 H         1 MNO         0.0234
     52 H14        31.8729   68.3440    8.7384 H         1 MNO         0.0234
     53 H15        30.6597   67.3673    9.6332 H         1 MNO         0.0234
     54 H16        30.3476   67.8468    7.9304 H         1 MNO         0.0234
     55 H17        35.5851   62.8641    8.1586 H         1 MNO         0.0802
     56 H18        35.0420   61.2386    9.7603 H         1 MNO         0.0313
     57 H19        34.3713   60.3963    8.3224 H         1 MNO         0.0313
     58 H20        32.8411   60.9579   10.4655 H         1 MNO         0.0287
     59 H21        32.1886   61.0418    8.7940 H         1 MNO         0.0287
     60 H22        31.6625   63.2142    9.3732 H         1 MNO         0.0524
     61 H23        32.8760   63.2584   10.6968 H         1 MNO         0.0524
     62 H24        36.1371   62.3716    6.0894 H         1 MNO         0.1857
     63 H25        36.2273   63.2605    3.7671 H         1 MNO         0.0526
     64 H26        35.9036   61.9609    2.5700 H         1 MNO         0.0526
     65 H27        33.0723   62.7404    1.3541 H         1 MNO         0.2141
     66 H28        33.7993   61.7146    4.3427 H         1 MNO         0.0604
     67 H29        29.7535   61.3291    2.8947 H         1 MNO         0.0486
     68 H30        30.9420   60.8669    1.6296 H         1 MNO         0.0486
     69 H31        30.2104   62.5074    1.6183 H         1 MNO         0.0486
     70 H32        33.6495   59.4458    4.4579 H         1 MNO         0.2095
     71 H33        35.7756   59.9198    5.2500 H         1 MNO         0.0582
     72 H34        36.2259   60.2801    3.5488 H         1 MNO         0.0582
@<TRIPOS>BOND
     1    2    1 ar 
     2    1    6 ar 
     3    2    3 ar 
     4   11    2 1  
     5    3    4 ar 
     6    4    5 ar 
     7    6    5 ar 
     8    5   10 ar 
     9    6    7 ar 
    10    7    8 ar 
    11    8    9 ar 
    12   10    9 ar 
    13   11   12 2  
    14   13   11 am 
    15   14   13 1  
    16   15   14 1  
    17   14   17 1  
    18   15   16 2  
    19   20   15 am 
    20   17   18 1  
    21   17   19 1  
    22   21   20 1  
    23   20   26 1  
    24   22   21 1  
    25   21   24 1  
    26   22   23 2  
    27   27   22 am 
    28   24   25 1  
    29   25   26 1  
    30   32   27 1  
    31   28   29 1  
    32   28   32 1  
    33   29   30 am 
    34   29   31 2  
    35   30   33 am 
    36   32   38 1  
    37   33   34 2  
    38   33   35 2  
    39   33   36 1  
    40   38   37 1  
    41    1   39 1  
    42    3   40 1  
    43    4   41 1  
    44    7   42 1  
    45    8   43 1  
    46    9   44 1  
    47   10   45 1  
    48   13   46 1  
    49   14   47 1  
    50   17   48 1  
    51   18   49 1  
    52   18   50 1  
    53   18   51 1  
    54   19   52 1  
    55   19   53 1  
    56   19   54 1  
    57   21   55 1  
    58   24   56 1  
    59   24   57 1  
    60   25   58 1  
    61   25   59 1  
    62   26   60 1  
    63   26   61 1  
    64   27   62 1  
    65   28   63 1  
    66   28   64 1  
    67   30   65 1  
    68   32   66 1  
    69   36   67 1  
    70   36   68 1  
    71   36   69 1  
    72   37   70 1  
    73   38   71 1  
    74   38   72 1  
@<TRIPOS>SUBSTRUCTURE
     1 MNO         1

