### 
### Created by X-TOOL on Mon Sep 10 21:12:46 2018
### 

@<TRIPOS>MOLECULE
1bn1_ligand
   35    36     1     0     0
SMALL
GAST_HUCK


@<TRIPOS>ATOM
      1 C3         -5.2620    1.9170   15.8680 C.2       1 AL5         0.1618
      2 C9         -2.5330    6.0160   13.9960 C.3       1 AL5         0.0571
      3 C10        -2.0730    7.4580   14.0060 C.ar      1 AL5        -0.0313
      4 C11        -2.0590    8.2370   12.8360 C.ar      1 AL5        -0.0653
      5 C12        -1.6300    9.5640   12.8920 C.ar      1 AL5        -0.0670
      6 C13        -1.2090   10.1180   14.1120 C.ar      1 AL5        -0.0528
      7 C14        -1.2240    9.3400   15.2660 C.ar      1 AL5        -0.0670
      8 C15        -1.6550    8.0180   15.2120 C.ar      1 AL5        -0.0653
      9 C16        -0.7060   11.5750   14.2040 C.3       1 AL5        -0.0343
     10 O2A        -7.3420    0.8980   16.8160 O.2       1 AL5        -0.1501
     11 O1A        -5.4520    0.8900   18.2090 O.2       1 AL5        -0.1501
     12 N21        -5.4260   -0.6700   16.2410 N.am      1 AL5        -0.2605
     13 S1         -5.9230    0.6800   16.8870 S.o2      1 AL5         0.0745
     14 C4         -3.9450    1.9180   15.4540 C.2       1 AL5        -0.0504
     15 C5         -3.6630    3.0440   14.7110 C.2       1 AL5        -0.0504
     16 C6         -4.7720    3.8640   14.5850 C.2       1 AL5         0.1622
     17 S2         -6.1860    3.2900   15.3520 S.3       1 AL5         0.0111
     18 S7         -4.9240    5.4130   13.8250 S.o2      1 AL5         0.0784
     19 O3B        -6.0860    5.4170   12.9990 O.2       1 AL5        -0.1497
     20 O4B        -5.2530    6.3320   14.8660 O.2       1 AL5        -0.1497
     21 N8         -3.6740    5.7880   13.1100 N.am      1 AL5        -0.2368
     22 H1         -1.6974    5.3835   13.6618 H         1 AL5         0.0625
     23 H2         -2.8211    5.7326   15.0191 H         1 AL5         0.0625
     24 H3         -2.3803    7.8086   11.8935 H         1 AL5         0.0540
     25 H4         -1.6217   10.1682   11.9921 H         1 AL5         0.0540
     26 H5         -0.8992    9.7648   16.2089 H         1 AL5         0.0540
     27 H6         -1.6658    7.4188   16.1153 H         1 AL5         0.0540
     28 H7         -0.7594   12.0447   13.2108 H         1 AL5         0.0378
     29 H8          0.3357   11.5817   14.5571 H         1 AL5         0.0378
     30 H9         -1.3360   12.1366   14.9095 H         1 AL5         0.0378
     31 H10        -5.6799   -1.5449   16.6535 H         1 AL5         0.1635
     32 H11        -4.8570   -0.6512   15.4189 H         1 AL5         0.1635
     33 H12        -3.2251    1.1338   15.6838 H         1 AL5         0.0423
     34 H13        -2.6885    3.2620   14.2766 H         1 AL5         0.0423
     35 H14        -3.6192    5.8760   12.1154 H         1 AL5         0.1698
@<TRIPOS>BOND
     1    1   17 1  
     2    1   14 2  
     3    1   13 1  
     4   13   10 2  
     5   13   11 2  
     6   13   12 am 
     7   14   15 1  
     8   15   16 2  
     9   16   18 1  
    10   16   17 1  
    11   18   21 am 
    12   18   20 2  
    13   18   19 2  
    14   21    2 1  
    15    2    3 1  
    16    3    8 ar 
    17    3    4 ar 
    18    4    5 ar 
    19    5    6 ar 
    20    6    9 1  
    21    6    7 ar 
    22    7    8 ar 
    23    2   22 1  
    24    2   23 1  
    25    4   24 1  
    26    5   25 1  
    27    7   26 1  
    28    8   27 1  
    29    9   28 1  
    30    9   29 1  
    31    9   30 1  
    32   12   31 1  
    33   12   32 1  
    34   14   33 1  
    35   15   34 1  
    36   21   35 1  
@<TRIPOS>SUBSTRUCTURE
     1 AL5         1

