### 
### Created by X-TOOL on Mon Sep 10 21:12:46 2018
### 

@<TRIPOS>MOLECULE
1bn3_ligand
   35    37     1     0     0
SMALL
GAST_HUCK


@<TRIPOS>ATOM
      1 C3         -5.2650    1.9590   15.9200 C.2       1 AL6         0.1592
      2 O5         -0.9340    9.4020   15.5110 O.3       1 AL6        -0.3250
      3 C9         -2.4550    4.9840   13.7630 C.2       1 AL6         0.0560
      4 C10        -2.5930    3.7050   14.2800 C.2       1 AL6        -0.0706
      5 C11        -2.9660    7.2090   13.5990 C.ar      1 AL6         0.0910
      6 C12        -3.3770    8.0350   12.5370 C.ar      1 AL6        -0.0470
      7 C13        -2.9400    9.3550   12.4680 C.ar      1 AL6        -0.0825
      8 C14        -2.1020    9.8560   13.4610 C.ar      1 AL6        -0.0475
      9 C15        -1.7040    9.0120   14.5310 C.ar      1 AL6         0.0783
     10 C16        -2.1320    7.6890   14.6040 C.ar      1 AL6        -0.0089
     11 O1A        -5.2880    0.7240   18.0410 O.2       1 AL6        -0.1498
     12 O2A        -7.2870    0.7870   16.8540 O.2       1 AL6        -0.1498
     13 N21        -5.4860   -0.7710   16.1350 N.am      1 AL6        -0.2603
     14 S1         -5.8870    0.6240   16.7890 S.o2      1 AL6         0.0748
     15 C4         -3.9950    2.0400   15.3980 C.2       1 AL6        -0.0498
     16 C5         -3.8050    3.2560   14.7890 C.2       1 AL6        -0.0437
     17 C6         -4.9210    4.0680   14.7970 C.2       1 AL6         0.1618
     18 S2         -6.1980    3.3560   15.6260 S.3       1 AL6        -0.0016
     19 S7         -4.8740    5.5810   14.0070 S.o2      1 AL6         0.1140
     20 O3B        -5.4900    5.3090   12.7750 O.2       1 AL6        -0.1403
     21 O4B        -5.7290    6.4750   14.7310 O.2       1 AL6        -0.1403
     22 N8         -3.4630    5.9640   13.6250 N.am      1 AL6        -0.1244
     23 C17        -0.4480   10.7670   15.4990 C.3       1 AL6         0.0590
     24 H1         -1.4583    5.2644   13.4256 H         1 AL6         0.1020
     25 H2         -1.7324    3.0378   14.2872 H         1 AL6         0.0206
     26 H3         -4.0356    7.6427   11.7705 H         1 AL6         0.0428
     27 H4         -3.2504    9.9895   11.6457 H         1 AL6         0.0553
     28 H5         -1.7563   10.8825   13.4173 H         1 AL6         0.0425
     29 H6         -1.8233    7.0493   15.4229 H         1 AL6         0.0432
     30 H7         -5.7918   -1.6259   16.5540 H         1 AL6         0.1635
     31 H8         -4.9283   -0.7923   15.3052 H         1 AL6         0.1635
     32 H9         -3.2463    1.2515   15.4590 H         1 AL6         0.0409
     33 H10         0.1823   10.9396   16.3838 H         1 AL6         0.0577
     34 H11        -1.3018   11.4604   15.5162 H         1 AL6         0.0577
     35 H12         0.1445   10.9373   14.5880 H         1 AL6         0.0577
@<TRIPOS>BOND
     1    1   18 1  
     2    1   15 2  
     3    1   14 1  
     4   14   11 2  
     5   14   12 2  
     6   14   13 am 
     7   15   16 1  
     8   16   17 2  
     9   16    4 1  
    10    4    3 2  
    11    3   22 am 
    12   22    5 1  
    13   22   19 am 
    14   19   21 2  
    15   19   20 2  
    16   19   17 1  
    17   17   18 1  
    18    5   10 ar 
    19    5    6 ar 
    20    6    7 ar 
    21    7    8 ar 
    22    8    9 ar 
    23    9   10 ar 
    24    9    2 1  
    25    2   23 1  
    26    3   24 1  
    27    4   25 1  
    28    6   26 1  
    29    7   27 1  
    30    8   28 1  
    31   10   29 1  
    32   13   30 1  
    33   13   31 1  
    34   15   32 1  
    35   23   33 1  
    36   23   34 1  
    37   23   35 1  
@<TRIPOS>SUBSTRUCTURE
     1 AL6         1

