### 
### Created by X-TOOL on Mon Sep 10 21:12:46 2018
### 

@<TRIPOS>MOLECULE
1bn4_ligand
   36    37     1     0     0
SMALL
GAST_HUCK


@<TRIPOS>ATOM
      1 C3         -5.3340    1.9280   15.8380 C.2       1 AL9         0.1618
      2 C9         -2.6420    6.0360   14.1840 C.3       1 AL9         0.0552
      3 C10        -2.0580    7.4270   14.2930 C.ar      1 AL9        -0.0354
      4 C11        -1.5690    8.0980   13.1690 C.ar      1 AL9        -0.0672
      5 C12        -1.0250    9.3690   13.3220 C.ar      1 AL9        -0.0395
      6 C13        -0.9660    9.9790   14.5860 C.ar      1 AL9         0.0837
      7 C14        -1.4620    9.2940   15.6900 C.ar      1 AL9        -0.0395
      8 C15        -2.0050    8.0260   15.5480 C.ar      1 AL9        -0.0672
      9 O2A        -7.3330    0.8630   16.8700 O.2       1 AL9        -0.1501
     10 O1A        -5.4060    0.9380   18.1940 O.2       1 AL9        -0.1501
     11 N21        -5.4190   -0.6910   16.2970 N.am      1 AL9        -0.2605
     12 S1         -5.9230    0.6810   16.8990 S.o2      1 AL9         0.0745
     13 C4         -4.0780    1.8800   15.2730 C.2       1 AL9        -0.0504
     14 C5         -3.8100    3.0110   14.5290 C.2       1 AL9        -0.0504
     15 C6         -4.8720    3.8920   14.5410 C.2       1 AL9         0.1622
     16 S2         -6.2230    3.3680   15.4530 S.3       1 AL9         0.0111
     17 S7         -4.9970    5.4380   13.7870 S.o2      1 AL9         0.0783
     18 O3B        -5.9560    5.3350   12.7320 O.2       1 AL9        -0.1498
     19 O4B        -5.5240    6.3620   14.7360 O.2       1 AL9        -0.1498
     20 N8         -3.7200    5.9420   13.2030 N.am      1 AL9        -0.2374
     21 O16        -0.4480   11.1690   14.7670 O.3       1 AL9        -0.3257
     22 C17         0.0540   11.7940   13.5620 C.3       1 AL9         0.0579
     23 H1         -1.8405    5.3419   13.8909 H         1 AL9         0.0617
     24 H2         -3.0378    5.7445   15.1680 H         1 AL9         0.0617
     25 H3         -1.6131    7.6339   12.1903 H         1 AL9         0.0531
     26 H4         -0.6419    9.8952   12.4552 H         1 AL9         0.0525
     27 H5         -1.4238    9.7554   16.6702 H         1 AL9         0.0525
     28 H6         -2.3885    7.5009   16.4153 H         1 AL9         0.0531
     29 H7         -5.6462   -1.5510   16.7539 H         1 AL9         0.1635
     30 H8         -4.8729   -0.6989   15.4593 H         1 AL9         0.1635
     31 H9         -3.3825    1.0515   15.3982 H         1 AL9         0.0423
     32 H10        -2.8756    3.1866   13.9979 H         1 AL9         0.0423
     33 H11        -3.6132    6.1897   12.2401 H         1 AL9         0.1696
     34 H12         0.4679   12.7832   13.8072 H         1 AL9         0.0575
     35 H13        -0.7671   11.9090   12.8391 H         1 AL9         0.0575
     36 H14         0.8428   11.1649   13.1239 H         1 AL9         0.0575
@<TRIPOS>BOND
     1    1   16 1  
     2    1   13 2  
     3    1   12 1  
     4   12    9 2  
     5   12   10 2  
     6   12   11 am 
     7   13   14 1  
     8   14   15 2  
     9   15   17 1  
    10   15   16 1  
    11   17   20 am 
    12   17   19 2  
    13   17   18 2  
    14   20    2 1  
    15    2    3 1  
    16    3    8 ar 
    17    3    4 ar 
    18    4    5 ar 
    19    5    6 ar 
    20    6   21 1  
    21    6    7 ar 
    22    7    8 ar 
    23   21   22 1  
    24    2   23 1  
    25    2   24 1  
    26    4   25 1  
    27    5   26 1  
    28    7   27 1  
    29    8   28 1  
    30   11   29 1  
    31   11   30 1  
    32   13   31 1  
    33   14   32 1  
    34   20   33 1  
    35   22   34 1  
    36   22   35 1  
    37   22   36 1  
@<TRIPOS>SUBSTRUCTURE
     1 AL9         1

