### 
### Created by X-TOOL on Mon Sep 10 21:12:46 2018
### 

@<TRIPOS>MOLECULE
1bnm_ligand
   43    45     1     0     0
SMALL
GAST_HUCK


@<TRIPOS>ATOM
      1 C3         -5.4000    1.9440   15.9240 C.2       1 AL8         0.1594
      2 C9         -2.4630    4.8670   13.9500 C.3       1 AL8         0.1044
      3 C10        -2.8930    3.4230   13.6810 C.3       1 AL8         0.0239
      4 C16        -1.7410    2.8760   12.0540 C.3       1 AL8        -0.0435
      5 C19        -2.7850    9.0350   12.1510 C.ar      1 AL8        -0.0860
      6 C20        -2.0570    9.6170   13.1770 C.ar      1 AL8        -0.0504
      7 C21        -1.8380    8.8910   14.3630 C.ar      1 AL8         0.0749
      8 C22        -2.3290    7.6200   14.5370 C.ar      1 AL8        -0.0182
      9 C24        -0.6130   10.6880   15.2670 C.3       1 AL8         0.0589
     10 N21        -5.5380   -0.6170   16.2430 N.am      1 AL8        -0.2605
     11 S1         -5.9500    0.6570   16.8730 S.o2      1 AL8         0.0744
     12 O1A        -5.3910    0.7990   18.1650 O.2       1 AL8        -0.1500
     13 O2A        -7.3510    0.9550   16.9350 O.2       1 AL8        -0.1500
     14 S2         -6.2800    3.4070   15.8760 S.3       1 AL8        -0.0008
     15 C6         -5.0780    4.0110   14.8260 C.2       1 AL8         0.1670
     16 C5         -4.0830    3.0570   14.5530 C.2       1 AL8         0.0156
     17 C4         -4.2700    1.8750   15.1870 C.2       1 AL8        -0.0394
     18 N8         -3.5320    5.8130   13.6450 N.am      1 AL8        -0.1711
     19 S7         -4.9100    5.6420   14.3140 S.o2      1 AL8         0.0937
     20 O3B        -6.1270    6.0410   13.5250 O.2       1 AL8        -0.1464
     21 O4B        -4.9680    6.5100   15.5190 O.2       1 AL8        -0.1464
     22 N15        -3.1500    3.2010   12.2660 N.4       1 AL8         0.2373
     23 C17        -3.0530    7.0560   13.5040 C.ar      1 AL8         0.0568
     24 C18        -3.2870    7.7480   12.3110 C.ar      1 AL8        -0.0562
     25 O23        -1.1630    9.3500   15.3770 O.3       1 AL8        -0.3257
     26 H1         -1.5896    5.1017   13.3238 H         1 AL8         0.0628
     27 H2         -2.1908    4.9664   15.0111 H         1 AL8         0.0628
     28 H3         -2.0585    2.7664   13.9681 H         1 AL8         0.0988
     29 H4         -1.5754    2.6373   10.9930 H         1 AL8         0.0777
     30 H5         -1.4679    2.0080   12.6720 H         1 AL8         0.0777
     31 H6         -1.1192    3.7380   12.3373 H         1 AL8         0.0777
     32 H7         -2.9618    9.5793   11.2303 H         1 AL8         0.0547
     33 H8         -1.6607   10.6200   13.0673 H         1 AL8         0.0402
     34 H9         -2.1536    7.0754   15.4577 H         1 AL8         0.0397
     35 H10        -0.0726   10.9394   16.1915 H         1 AL8         0.0577
     36 H11        -1.4296   11.4085   15.1122 H         1 AL8         0.0577
     37 H12         0.0802   10.7305   14.4140 H         1 AL8         0.0577
     38 H13        -5.7798   -1.4877   16.6712 H         1 AL8         0.1635
     39 H14        -5.0178   -0.6072   15.3890 H         1 AL8         0.1635
     40 H15        -3.6147    1.0082   15.1144 H         1 AL8         0.0415
     41 H16        -3.4607    4.0225   11.7713 H         1 AL8         0.2024
     42 H17        -3.7803    2.4371   12.0781 H         1 AL8         0.2024
     43 H18        -3.8571    7.2831   11.5148 H         1 AL8         0.0393
@<TRIPOS>BOND
     1    1   11 1  
     2   14    1 1  
     3   17    1 2  
     4    2    3 1  
     5   18    2 1  
     6    3   16 1  
     7    3   22 1  
     8   22    4 1  
     9    6    5 ar 
    10    5   24 ar 
    11    7    6 ar 
    12    8    7 ar 
    13    7   25 1  
    14   23    8 ar 
    15   25    9 1  
    16   11   10 am 
    17   11   12 2  
    18   11   13 2  
    19   15   14 1  
    20   15   16 2  
    21   19   15 1  
    22   16   17 1  
    23   18   19 am 
    24   18   23 1  
    25   19   20 2  
    26   19   21 2  
    27   23   24 ar 
    28    2   26 1  
    29    2   27 1  
    30    3   28 1  
    31    4   29 1  
    32    4   30 1  
    33    4   31 1  
    34    5   32 1  
    35    6   33 1  
    36    8   34 1  
    37    9   35 1  
    38    9   36 1  
    39    9   37 1  
    40   10   38 1  
    41   10   39 1  
    42   17   40 1  
    43   22   41 1  
    44   22   42 1  
    45   24   43 1  
@<TRIPOS>SUBSTRUCTURE
     1 AL8         1

