### 
### Created by X-TOOL on Mon Sep 10 21:12:46 2018
### 

@<TRIPOS>MOLECULE
1bnn_ligand
   37    39     1     0     0
SMALL
GAST_HUCK


@<TRIPOS>ATOM
      1 C3         -5.1960    2.0290   15.9090 C.2       1 AL1         0.1592
      2 C9         -2.6490    4.8220   13.0050 C.3       1 AL1         0.0617
      3 C10        -2.3760    3.7780   14.0760 C.3       1 AL1        -0.0070
      4 C19        -2.4870    9.1280   12.4120 C.ar      1 AL1        -0.0860
      5 C20        -1.8940    9.6180   13.5640 C.ar      1 AL1        -0.0504
      6 C21        -1.8870    8.8140   14.7220 C.ar      1 AL1         0.0749
      7 C22        -2.4470    7.5520   14.7580 C.ar      1 AL1        -0.0182
      8 C24        -0.7180   10.5010   15.8270 C.3       1 AL1         0.0589
      9 N21        -5.5050   -0.6380   16.3660 N.am      1 AL1        -0.2605
     10 S1         -5.8570    0.7240   16.8220 S.o2      1 AL1         0.0744
     11 O1A        -5.2790    0.8820   18.1040 O.2       1 AL1        -0.1500
     12 O2A        -7.2380    0.9340   16.6990 O.2       1 AL1        -0.1500
     13 S2         -6.1660    3.3910   15.5220 S.3       1 AL1        -0.0010
     14 C6         -4.8230    4.0290   14.7000 C.2       1 AL1         0.1618
     15 C5         -3.6450    3.2420   14.7300 C.2       1 AL1        -0.0316
     16 C4         -3.8970    2.0820   15.4310 C.2       1 AL1        -0.0447
     17 N8         -3.4920    5.8510   13.5870 N.am      1 AL1        -0.1765
     18 S7         -4.9490    5.5190   13.8560 S.o2      1 AL1         0.0933
     19 O3B        -5.7560    5.1940   12.6450 O.2       1 AL1        -0.1464
     20 O4B        -5.7520    6.5720   14.5300 O.2       1 AL1        -0.1464
     21 C17        -3.0190    7.1020   13.5910 C.ar      1 AL1         0.0566
     22 C18        -3.0580    7.8580   12.4180 C.ar      1 AL1        -0.0562
     23 O23        -1.3400    9.1940   15.8370 O.3       1 AL1        -0.3257
     24 H1         -3.1637    4.3560   12.1518 H         1 AL1         0.0571
     25 H2         -1.7012    5.2643   12.6644 H         1 AL1         0.0571
     26 H3         -1.8382    2.9366   13.6148 H         1 AL1         0.0400
     27 H4         -1.7465    4.2328   14.8550 H         1 AL1         0.0400
     28 H5         -2.5064    9.7300   11.5107 H         1 AL1         0.0547
     29 H6         -1.4427   10.6035   13.5749 H         1 AL1         0.0402
     30 H7         -2.4363    6.9482   15.6582 H         1 AL1         0.0397
     31 H8         -0.2921   10.7120   16.8190 H         1 AL1         0.0577
     32 H9         -1.4716   11.2639   15.5817 H         1 AL1         0.0577
     33 H10         0.0824   10.5204   15.0727 H         1 AL1         0.0577
     34 H11        -5.8579   -1.4358   16.8549 H         1 AL1         0.1635
     35 H12        -4.9141   -0.7612   15.5687 H         1 AL1         0.1635
     36 H13        -3.1592    1.2971   15.5907 H         1 AL1         0.0413
     37 H14        -3.5263    7.4618   11.5242 H         1 AL1         0.0393
@<TRIPOS>BOND
     1    1   16 2  
     2    1   13 1  
     3    1   10 1  
     4   10    9 am 
     5   10   12 2  
     6   10   11 2  
     7   13   14 1  
     8   14   18 1  
     9   14   15 2  
    10   15   16 1  
    11   15    3 1  
    12    3    2 1  
    13    2   17 1  
    14   17   18 am 
    15   17   21 1  
    16   21    7 ar 
    17   21   22 ar 
    18   22    4 ar 
    19    4    5 ar 
    20    5    6 ar 
    21    6   23 1  
    22    6    7 ar 
    23   23    8 1  
    24   18   20 2  
    25   18   19 2  
    26    2   24 1  
    27    2   25 1  
    28    3   26 1  
    29    3   27 1  
    30    4   28 1  
    31    5   29 1  
    32    7   30 1  
    33    8   31 1  
    34    8   32 1  
    35    8   33 1  
    36    9   34 1  
    37    9   35 1  
    38   16   36 1  
    39   22   37 1  
@<TRIPOS>SUBSTRUCTURE
     1 AL1         1

