### 
### Created by X-TOOL on Mon Sep 10 21:12:46 2018
### 

@<TRIPOS>MOLECULE
1bnq_ligand
   42    43     1     0     0
SMALL
GAST_HUCK


@<TRIPOS>ATOM
      1 C3         -5.4110    2.1300   15.9940 C.2       1 AL4         0.1594
      2 C9         -3.4750    5.2100   12.8070 C.3       1 AL4         0.0786
      3 C10        -3.0900    3.9100   13.5610 C.3       1 AL4         0.0179
      4 C11        -3.3570    7.4280   13.8130 C.3       1 AL4         0.0532
      5 C12        -2.1140    7.2940   14.6710 C.3       1 AL4         0.0643
      6 C14        -1.8980    9.6140   15.1440 C.3       1 AL4         0.0365
      7 C16        -1.4990    2.9730   11.8820 C.3       1 AL4        -0.0353
      8 O1A        -5.3690    0.9060   18.2470 O.2       1 AL4        -0.1500
      9 O2A        -7.3410    1.0020   17.0140 O.2       1 AL4        -0.1500
     10 N21        -5.5150   -0.4740   16.3480 N.am      1 AL4        -0.2605
     11 S1         -5.9400    0.8170   16.9460 S.o2      1 AL4         0.0744
     12 C4         -4.2770    2.2090   15.2360 C.2       1 AL4        -0.0394
     13 C5         -4.1380    3.3910   14.5620 C.2       1 AL4         0.0145
     14 C6         -5.2030    4.2360   14.8560 C.2       1 AL4         0.1611
     15 S2         -6.3670    3.5540   15.9020 S.3       1 AL4        -0.0013
     16 S7         -5.3460    5.8670   14.3380 S.o2      1 AL4         0.0728
     17 O3B        -6.3440    5.9330   13.3320 O.2       1 AL4        -0.1520
     18 O4B        -5.7570    6.7250   15.3850 O.2       1 AL4        -0.1520
     19 N8         -3.9590    6.1200   13.8370 N.am      1 AL4        -0.2265
     20 N15        -2.8090    2.9050   12.5390 N.4       1 AL4         0.2389
     21 O13        -1.3150    8.4560   14.5440 O.3       1 AL4        -0.3814
     22 C17        -1.2660    1.8440   10.8680 C.3       1 AL4        -0.0245
     23 H1         -4.2649    5.0081   12.0686 H         1 AL4         0.0552
     24 H2         -2.5973    5.6352   12.2982 H         1 AL4         0.0552
     25 H3         -2.1691    4.1078   14.1291 H         1 AL4         0.0982
     26 H4         -4.0414    8.1781   14.2359 H         1 AL4         0.0501
     27 H5         -3.0899    7.7136   12.7848 H         1 AL4         0.0501
     28 H6         -1.5370    6.4167   14.3432 H         1 AL4         0.0576
     29 H7         -2.4087    7.1669   15.7231 H         1 AL4         0.0576
     30 H8         -1.2267   10.4747   15.0081 H         1 AL4         0.0523
     31 H9         -2.0496    9.4334   16.2184 H         1 AL4         0.0523
     32 H10        -2.8666    9.8256   14.6675 H         1 AL4         0.0523
     33 H11        -0.7181    2.9145   12.6544 H         1 AL4         0.0811
     34 H12        -1.4225    3.9357   11.3555 H         1 AL4         0.0811
     35 H13        -5.7536   -1.3354   16.7965 H         1 AL4         0.1635
     36 H14        -4.9902   -0.4821   15.4968 H         1 AL4         0.1635
     37 H15        -3.5482    1.4022   15.1740 H         1 AL4         0.0415
     38 H16        -3.5133    2.9936   11.8233 H         1 AL4         0.2027
     39 H17        -2.8844    1.9990   12.9743 H         1 AL4         0.2027
     40 H18        -0.2694    1.9568   10.4162 H         1 AL4         0.0281
     41 H19        -2.0330    1.8938   10.0811 H         1 AL4         0.0281
     42 H20        -1.3285    0.8725   11.3801 H         1 AL4         0.0281
@<TRIPOS>BOND
     1    1   15 1  
     2    1   12 2  
     3    1   11 1  
     4   11    8 2  
     5   11    9 2  
     6   11   10 am 
     7   12   13 1  
     8   13   14 2  
     9   13    3 1  
    10    3   20 1  
    11    3    2 1  
    12    2   19 1  
    13   19    4 1  
    14   19   16 am 
    15   16   18 2  
    16   16   17 2  
    17   16   14 1  
    18   14   15 1  
    19    4    5 1  
    20    5   21 1  
    21   21    6 1  
    22   20    7 1  
    23    7   22 1  
    24    2   23 1  
    25    2   24 1  
    26    3   25 1  
    27    4   26 1  
    28    4   27 1  
    29    5   28 1  
    30    5   29 1  
    31    6   30 1  
    32    6   31 1  
    33    6   32 1  
    34    7   33 1  
    35    7   34 1  
    36   10   35 1  
    37   10   36 1  
    38   12   37 1  
    39   20   38 1  
    40   20   39 1  
    41   22   40 1  
    42   22   41 1  
    43   22   42 1  
@<TRIPOS>SUBSTRUCTURE
     1 AL4         1

