### 
### Created by X-TOOL on Mon Sep 10 21:12:46 2018
### 

@<TRIPOS>MOLECULE
1bnt_ligand
   38    40     1     0     0
SMALL
GAST_HUCK


@<TRIPOS>ATOM
      1 C3         -5.2980    2.0710   15.9760 C.2       1 AL2         0.1593
      2 O5         -2.3840    2.8150   12.7910 O.3       1 AL2        -0.3812
      3 C9         -3.1400    5.0670   12.8350 C.3       1 AL2         0.0855
      4 C10        -2.7570    3.8410   13.6970 C.3       1 AL2         0.1009
      5 C11        -3.0180    7.2900   13.8320 C.ar      1 AL2         0.0547
      6 C12        -2.9630    8.0310   12.6430 C.ar      1 AL2        -0.0531
      7 C13        -2.4250    9.3160   12.6570 C.ar      1 AL2        -0.0482
      8 C14        -1.9250    9.8350   13.8530 C.ar      1 AL2         0.0734
      9 C15        -1.9510    9.0880   15.0400 C.ar      1 AL2        -0.0482
     10 C16        -2.5070    7.8110   15.0280 C.ar      1 AL2        -0.0531
     11 O1A        -5.4860    0.8180   18.2380 O.2       1 AL2        -0.1500
     12 O2A        -7.3100    0.9230   16.8750 O.2       1 AL2        -0.1500
     13 N21        -5.5200   -0.5310   16.2930 N.am      1 AL2        -0.2605
     14 S1         -5.9080    0.7570   16.8950 S.o2      1 AL2         0.0744
     15 C4         -4.1150    2.1470   15.2890 C.2       1 AL2        -0.0422
     16 C5         -3.8850    3.3250   14.6260 C.2       1 AL2        -0.0035
     17 C6         -4.9450    4.1890   14.8420 C.2       1 AL2         0.1637
     18 S2         -6.1910    3.5260   15.8110 S.3       1 AL2        -0.0010
     19 S7         -4.9630    5.7960   14.2370 S.o2      1 AL2         0.0917
     20 O3B        -5.8730    5.8450   13.1410 O.2       1 AL2        -0.1468
     21 O4B        -5.4530    6.6170   15.3010 O.2       1 AL2        -0.1468
     22 N8         -3.5200    6.0470   13.8370 N.am      1 AL2        -0.1778
     23 O6         -1.4580   11.1370   13.8280 O.3       1 AL2        -0.3321
     24 C17        -0.0750   11.2720   13.4630 C.3       1 AL2         0.0557
     25 H1         -2.1391    2.0372   13.2785 H         1 AL2         0.2123
     26 H2         -3.9817    4.8355   12.1657 H         1 AL2         0.0591
     27 H3         -2.2841    5.4179   12.2399 H         1 AL2         0.0591
     28 H4         -1.8955    4.1101   14.3258 H         1 AL2         0.0730
     29 H5         -3.3369    7.6065   11.7183 H         1 AL2         0.0457
     30 H6         -2.3949    9.9069   11.7487 H         1 AL2         0.0502
     31 H7         -1.5431    9.4998   15.9560 H         1 AL2         0.0502
     32 H8         -2.5441    7.2238   15.9385 H         1 AL2         0.0457
     33 H9         -5.8051   -1.3888   16.7206 H         1 AL2         0.1635
     34 H10        -4.9716   -0.5471   15.4569 H         1 AL2         0.1635
     35 H11        -3.4023    1.3238   15.2707 H         1 AL2         0.0414
     36 H12         0.2040   12.3360   13.4704 H         1 AL2         0.0571
     37 H13         0.0803   10.8593   12.4552 H         1 AL2         0.0571
     38 H14         0.5497   10.7241   14.1839 H         1 AL2         0.0571
@<TRIPOS>BOND
     1    1   18 1  
     2    1   15 2  
     3    1   14 1  
     4   14   11 2  
     5   14   12 2  
     6   14   13 am 
     7   15   16 1  
     8   16   17 2  
     9   16    4 1  
    10    4    3 1  
    11    4    2 1  
    12    3   22 1  
    13   22    5 1  
    14   22   19 am 
    15   19   21 2  
    16   19   20 2  
    17   19   17 1  
    18   17   18 1  
    19    5   10 ar 
    20    5    6 ar 
    21    6    7 ar 
    22    7    8 ar 
    23    8   23 1  
    24    8    9 ar 
    25    9   10 ar 
    26   23   24 1  
    27    2   25 1  
    28    3   26 1  
    29    3   27 1  
    30    4   28 1  
    31    6   29 1  
    32    7   30 1  
    33    9   31 1  
    34   10   32 1  
    35   13   33 1  
    36   13   34 1  
    37   15   35 1  
    38   24   36 1  
    39   24   37 1  
    40   24   38 1  
@<TRIPOS>SUBSTRUCTURE
     1 AL2         1

