### 
### Created by X-TOOL on Mon Sep 10 21:12:46 2018
### 

@<TRIPOS>MOLECULE
1bnu_ligand
   34    36     1     0     0
SMALL
GAST_HUCK


@<TRIPOS>ATOM
      1 C3         -5.3870    2.1330   15.8720 C.2       1 AL3         0.1593
      2 O5         -2.3100    3.0260   12.8700 O.3       1 AL3        -0.3817
      3 C9         -3.3960    5.1670   12.7360 C.3       1 AL3         0.0643
      4 C10        -2.9520    4.0030   13.6750 C.3       1 AL3         0.0956
      5 C11        -3.0250    6.6200   14.5750 C.3       1 AL3         0.0748
      6 C12        -2.4260    7.8850   14.2360 C.2       1 AL3         0.0308
      7 C13        -2.4300    8.5120   13.0050 C.2       1 AL3        -0.0801
      8 C14        -1.7940    9.7230   13.0680 C.2       1 AL3        -0.0931
      9 C15        -1.2980   10.0360   14.3240 C.2       1 AL3        -0.0195
     10 O1A        -5.4610    0.9870   18.1890 O.2       1 AL3        -0.1500
     11 O2A        -7.3040    0.8500   16.8940 O.2       1 AL3        -0.1500
     12 N21        -5.3540   -0.3940   16.2360 N.am      1 AL3        -0.2605
     13 S1         -5.8810    0.8350   16.8560 S.o2      1 AL3         0.0744
     14 C4         -4.2640    2.2050   15.1130 C.2       1 AL3        -0.0423
     15 C5         -4.1360    3.3590   14.4010 C.2       1 AL3        -0.0045
     16 C6         -5.2000    4.1940   14.6360 C.2       1 AL3         0.1585
     17 S2         -6.3430    3.5400   15.7230 S.3       1 AL3        -0.0014
     18 S7         -5.3150    5.8180   14.0610 S.o2      1 AL3         0.0745
     19 O3B        -6.2970    5.8260   13.0500 O.2       1 AL3        -0.1519
     20 O4B        -5.8480    6.6350   15.1020 O.2       1 AL3        -0.1519
     21 N8         -3.9840    6.2390   13.5360 N.am      1 AL3        -0.2185
     22 S16        -1.6320    8.7810   15.4670 S.3       1 AL3        -0.0427
     23 H1         -2.0277    2.3024   13.4170 H         1 AL3         0.2123
     24 H2         -4.1408    4.7948   12.0172 H         1 AL3         0.0523
     25 H3         -2.5217    5.5529   12.1914 H         1 AL3         0.0523
     26 H4         -2.2455    4.3919   14.4231 H         1 AL3         0.0725
     27 H5         -2.2413    5.8518   14.6499 H         1 AL3         0.0668
     28 H6         -3.5457    6.7080   15.5399 H         1 AL3         0.0668
     29 H7         -2.8795    8.0979   12.1037 H         1 AL3         0.0277
     30 H8         -1.6873   10.3819   12.2075 H         1 AL3         0.0371
     31 H9         -0.7654   10.9557   14.5613 H         1 AL3         0.0598
     32 H10        -5.5312   -1.2828   16.6586 H         1 AL3         0.1635
     33 H11        -4.8192   -0.3390   15.3928 H         1 AL3         0.1635
     34 H12        -3.5256    1.4054   15.0763 H         1 AL3         0.0414
@<TRIPOS>BOND
     1    1   17 1  
     2    1   14 2  
     3    1   13 1  
     4   13   10 2  
     5   13   11 2  
     6   13   12 am 
     7   14   15 1  
     8   15   16 2  
     9   15    4 1  
    10    4    3 1  
    11    4    2 1  
    12    3   21 1  
    13   21    5 1  
    14   21   18 am 
    15   18   20 2  
    16   18   19 2  
    17   18   16 1  
    18   16   17 1  
    19    5    6 1  
    20    6   22 1  
    21    6    7 2  
    22    7    8 1  
    23    8    9 2  
    24    9   22 1  
    25    2   23 1  
    26    3   24 1  
    27    3   25 1  
    28    4   26 1  
    29    5   27 1  
    30    5   28 1  
    31    7   29 1  
    32    8   30 1  
    33    9   31 1  
    34   12   32 1  
    35   12   33 1  
    36   14   34 1  
@<TRIPOS>SUBSTRUCTURE
     1 AL3         1

