### 
### Created by X-TOOL on Mon Sep 10 21:12:46 2018
### 

@<TRIPOS>MOLECULE
1bnv_ligand
   43    45     1     0     0
SMALL
GAST_HUCK


@<TRIPOS>ATOM
      1 C3         -5.4570    1.8790   15.8760 C.2       1 AL7         0.1594
      2 C9         -4.1420    4.6350   12.2540 C.3       1 AL7         0.1044
      3 C10        -3.4840    3.4720   13.0120 C.3       1 AL7         0.0239
      4 C16        -1.5470    3.0460   12.4460 C.3       1 AL7        -0.0435
      5 C19        -2.6170    8.7210   11.8780 C.ar      1 AL7        -0.0860
      6 C20        -1.8960    9.1920   12.9630 C.ar      1 AL7        -0.0504
      7 C21        -1.9140    8.4830   14.1610 C.ar      1 AL7         0.0749
      8 C22        -2.6460    7.2920   14.2810 C.ar      1 AL7        -0.0182
      9 C24        -0.6030   10.1410   15.2420 C.3       1 AL7         0.0589
     10 N21        -5.6080   -0.7560   16.4350 N.am      1 AL7        -0.2605
     11 S1         -5.9320    0.5970   16.9390 S.o2      1 AL7         0.0744
     12 O1A        -5.3140    0.8520   18.1880 O.2       1 AL7        -0.1500
     13 O2A        -7.3140    0.7730   16.9140 O.2       1 AL7        -0.1500
     14 S2         -6.1480    3.4410   16.0360 S.3       1 AL7        -0.0008
     15 C6         -5.2150    3.9570   14.7200 C.2       1 AL7         0.1670
     16 C5         -4.3770    2.9900   14.1530 C.2       1 AL7         0.0156
     17 C4         -4.5440    1.8080   14.8390 C.2       1 AL7        -0.0394
     18 N8         -4.1910    5.7360   13.2140 N.am      1 AL7        -0.1711
     19 S7         -5.3450    5.5640   14.1550 S.o2      1 AL7         0.0937
     20 O3B        -6.6280    5.7420   13.4100 O.2       1 AL7        -0.1464
     21 O4B        -5.2660    6.4310   15.3640 O.2       1 AL7        -0.1464
     22 N15        -2.1620    3.8540   13.4980 N.4       1 AL7         0.2373
     23 C17        -3.3910    6.8190   13.1810 C.ar      1 AL7         0.0568
     24 C18        -3.3590    7.5480   11.9850 C.ar      1 AL7        -0.0562
     25 O23        -1.3110    8.8950   15.2380 O.3       1 AL7        -0.3257
     26 H1         -5.1565    4.3599   11.9299 H         1 AL7         0.0628
     27 H2         -3.5398    4.9141   11.3768 H         1 AL7         0.0628
     28 H3         -3.3567    2.6368   12.3076 H         1 AL7         0.0988
     29 H4         -0.4519    3.1130   12.5252 H         1 AL7         0.0777
     30 H5         -1.8670    3.4198   11.4622 H         1 AL7         0.0777
     31 H6         -1.8593    1.9974   12.5592 H         1 AL7         0.0777
     32 H7         -2.6034    9.2679   10.9421 H         1 AL7         0.0547
     33 H8         -1.3212   10.1072   12.8797 H         1 AL7         0.0402
     34 H9         -2.6389    6.7390   15.2133 H         1 AL7         0.0397
     35 H10        -0.1655   10.3109   16.2368 H         1 AL7         0.0577
     36 H11        -1.2987   10.9588   15.0029 H         1 AL7         0.0577
     37 H12         0.1986   10.1097   14.4894 H         1 AL7         0.0577
     38 H13        -5.8433   -1.5617   16.9786 H         1 AL7         0.1635
     39 H14        -5.1537   -0.8647   15.5508 H         1 AL7         0.1635
     40 H15        -4.0043    0.8963   14.5872 H         1 AL7         0.0415
     41 H16        -1.9591    3.5368   14.4330 H         1 AL7         0.2024
     42 H17        -1.9661    4.8403   13.4278 H         1 AL7         0.2024
     43 H18        -3.9212    7.1928   11.1289 H         1 AL7         0.0393
@<TRIPOS>BOND
     1    1   17 2  
     2    1   14 1  
     3    1   11 1  
     4   11   10 am 
     5   11   13 2  
     6   11   12 2  
     7   14   15 1  
     8   15   19 1  
     9   15   16 2  
    10   16   17 1  
    11   16    3 1  
    12    3   22 1  
    13    3    2 1  
    14    2   18 1  
    15   18   19 am 
    16   18   23 1  
    17   23    8 ar 
    18   23   24 ar 
    19   24    5 ar 
    20    5    6 ar 
    21    6    7 ar 
    22    7   25 1  
    23    7    8 ar 
    24   25    9 1  
    25   19   21 2  
    26   19   20 2  
    27   22    4 1  
    28    2   26 1  
    29    2   27 1  
    30    3   28 1  
    31    4   29 1  
    32    4   30 1  
    33    4   31 1  
    34    5   32 1  
    35    6   33 1  
    36    8   34 1  
    37    9   35 1  
    38    9   36 1  
    39    9   37 1  
    40   10   38 1  
    41   10   39 1  
    42   17   40 1  
    43   22   41 1  
    44   22   42 1  
    45   24   43 1  
@<TRIPOS>SUBSTRUCTURE
     1 AL7         1

