### 
### Created by X-TOOL on Mon Sep 10 21:12:47 2018
### 

@<TRIPOS>MOLECULE
1bqm_ligand
   42    43     1     0     0
SMALL
GAST_HUCK


@<TRIPOS>ATOM
      1 C1        143.3080  -26.7940   71.7780 C.3       1 HBY         0.1478
      2 C2        142.2270  -27.6930   70.8790 C.2       1 HBY         0.1060
      3 C3        141.9390  -29.2540   72.8390 C.ar      1 HBY         0.0871
      4 C4        143.0130  -28.5030   73.6420 C.ar      1 HBY         0.0931
      5 C5        143.6540  -29.1090   74.7660 C.ar      1 HBY        -0.0229
      6 C6        143.3430  -30.4270   75.1680 C.ar      1 HBY         0.0635
      7 C7        142.1390  -31.1500   74.5210 C.ar      1 HBY        -0.0601
      8 C8        141.3980  -30.4820   73.3910 C.ar      1 HBY        -0.0583
      9 C9        144.0780  -26.0980   74.2440 C.2       1 HBY         0.3528
     10 C10       144.0830  -25.6040   76.7710 C.3       1 HBY         0.0830
     11 C12       145.2930  -24.8540   77.3910 C.3       1 HBY        -0.0346
     12 C11       142.9760  -24.6160   76.2600 C.3       1 HBY        -0.0346
     13 C13       144.7870  -26.7570   71.1570 C.3       1 HBY         0.0388
     14 C14       147.3120  -27.9380   70.9790 C.3       1 HBY        -0.0178
     15 C15       143.8060  -32.2590   77.0390 C.3       1 HBY         0.0562
     16 N1        143.3390  -27.1230   73.3180 N.am      1 HBY        -0.1776
     17 N2        141.4890  -28.7400   71.5500 N.am      1 HBY        -0.2546
     18 O1        144.3020  -24.8810   73.8050 O.2       1 HBY        -0.3679
     19 O2        144.4690  -26.5310   75.5540 O.3       1 HBY        -0.2564
     20 O3        144.2650  -31.0640   76.2330 O.3       1 HBY        -0.3336
     21 S1        141.9050  -27.1290   69.1770 S.2       1 HBY        -0.2714
     22 S2        145.9590  -27.7730   72.2290 S.3       1 HBY        -0.1584
     23 H1        142.9358  -25.7610   71.7120 H         1 HBY         0.0887
     24 H2        144.3946  -28.5455   75.3220 H         1 HBY         0.0385
     25 H3        141.8311  -32.1268   74.8762 H         1 HBY         0.0382
     26 H4        140.4818  -30.9093   72.9997 H         1 HBY         0.0443
     27 H5        143.6510  -26.2355   77.5613 H         1 HBY         0.0642
     28 H6        144.9478  -24.2311   78.2293 H         1 HBY         0.0258
     29 H7        145.7589  -24.2146   76.6267 H         1 HBY         0.0258
     30 H8        146.0294  -25.5849   77.7563 H         1 HBY         0.0258
     31 H9        142.1418  -25.1903   75.8307 H         1 HBY         0.0258
     32 H10       143.4011  -23.9555   75.4899 H         1 HBY         0.0258
     33 H11       142.6090  -24.0097   77.1012 H         1 HBY         0.0258
     34 H12       145.1397  -25.7159   71.1168 H         1 HBY         0.0434
     35 H13       144.7663  -27.1767   70.1404 H         1 HBY         0.0434
     36 H14       148.1389  -28.5225   71.4087 H         1 HBY         0.0341
     37 H15       147.6763  -26.9386   70.6989 H         1 HBY         0.0341
     38 H16       146.9257  -28.4511   70.0860 H         1 HBY         0.0341
     39 H17       144.6019  -32.5582   77.7368 H         1 HBY         0.0572
     40 H18       143.5806  -33.0945   76.3600 H         1 HBY         0.0572
     41 H19       142.9018  -31.9933   77.6063 H         1 HBY         0.0572
     42 H20       140.6638  -29.1146   71.1272 H         1 HBY         0.2309
@<TRIPOS>BOND
     1    1    2 1  
     2    1   13 1  
     3   16    1 1  
     4    2   17 am 
     5    2   21 2  
     6    4    3 ar 
     7    3    8 ar 
     8    3   17 1  
     9    4    5 ar 
    10   16    4 1  
    11    5    6 ar 
    12    6    7 ar 
    13    6   20 1  
    14    8    7 ar 
    15    9   16 am 
    16    9   18 2  
    17   19    9 1  
    18   10   11 1  
    19   10   12 1  
    20   10   19 1  
    21   13   22 1  
    22   22   14 1  
    23   20   15 1  
    24    1   23 1  
    25    5   24 1  
    26    7   25 1  
    27    8   26 1  
    28   10   27 1  
    29   11   28 1  
    30   11   29 1  
    31   11   30 1  
    32   12   31 1  
    33   12   32 1  
    34   12   33 1  
    35   13   34 1  
    36   13   35 1  
    37   14   36 1  
    38   14   37 1  
    39   14   38 1  
    40   15   39 1  
    41   15   40 1  
    42   15   41 1  
    43   17   42 1  
@<TRIPOS>SUBSTRUCTURE
     1 HBY         1

