### 
### Created by X-TOOL on Mon Sep 10 21:12:47 2018
### 

@<TRIPOS>MOLECULE
1bqn_ligand
   42    43     1     0     0
SMALL
GAST_HUCK


@<TRIPOS>ATOM
      1 C1        143.9560  -27.3820   72.1070 C.3       1 HBY         0.1478
      2 C2        142.5410  -27.8860   71.4070 C.2       1 HBY         0.1060
      3 C3        142.3180  -29.5460   73.2470 C.ar      1 HBY         0.0871
      4 C4        143.4460  -28.9490   74.0060 C.ar      1 HBY         0.0931
      5 C5        143.9620  -29.6270   75.1350 C.ar      1 HBY        -0.0229
      6 C6        143.3740  -30.8700   75.5670 C.ar      1 HBY         0.0635
      7 C7        142.2430  -31.4130   74.8510 C.ar      1 HBY        -0.0601
      8 C8        141.7250  -30.7420   73.6910 C.ar      1 HBY        -0.0583
      9 C9        145.0120  -26.8940   74.4610 C.2       1 HBY         0.3528
     10 C10       144.6230  -25.9730   76.8710 C.3       1 HBY         0.0830
     11 C12       145.6770  -24.8610   76.8150 C.3       1 HBY        -0.0346
     12 C11       143.2270  -25.4470   76.5330 C.3       1 HBY        -0.0346
     13 C13       145.2460  -27.9690   71.4050 C.3       1 HBY         0.0388
     14 C14       147.8000  -29.1520   71.6900 C.3       1 HBY        -0.0178
     15 C15       143.3650  -32.9040   77.1590 C.3       1 HBY         0.0562
     16 N1        144.0030  -27.6550   73.6310 N.am      1 HBY        -0.1776
     17 N2        141.8150  -28.9190   72.0630 N.am      1 HBY        -0.2546
     18 O1        145.8580  -26.1200   73.8770 O.2       1 HBY        -0.3679
     19 O2        144.9670  -27.1170   75.8890 O.3       1 HBY        -0.2564
     20 O3        143.9250  -31.5960   76.7300 O.3       1 HBY        -0.3336
     21 S1        142.0210  -27.1610   69.8910 S.2       1 HBY        -0.2714
     22 S2        146.5300  -28.4160   72.7410 S.3       1 HBY        -0.1584
     23 H1        143.9927  -26.2903   71.9769 H         1 HBY         0.0887
     24 H2        144.8029  -29.2102   75.6774 H         1 HBY         0.0385
     25 H3        141.7819  -32.3331   75.1913 H         1 HBY         0.0382
     26 H4        140.8773  -31.1572   73.1580 H         1 HBY         0.0443
     27 H5        144.6076  -26.3780   77.8936 H         1 HBY         0.0642
     28 H6        145.4062  -24.0632   77.5223 H         1 HBY         0.0258
     29 H7        145.7210  -24.4484   75.7963 H         1 HBY         0.0258
     30 H8        146.6600  -25.2735   77.0863 H         1 HBY         0.0258
     31 H9        142.5019  -26.2726   76.5840 H         1 HBY         0.0258
     32 H10       143.2304  -25.0242   75.5175 H         1 HBY         0.0258
     33 H11       142.9448  -24.6660   77.2544 H         1 HBY         0.0258
     34 H12       145.6696  -27.2167   70.7234 H         1 HBY         0.0434
     35 H13       144.9777  -28.8707   70.8349 H         1 HBY         0.0434
     36 H14       148.6465  -29.4787   72.3119 H         1 HBY         0.0341
     37 H15       148.1480  -28.4072   70.9591 H         1 HBY         0.0341
     38 H16       147.3794  -30.0185   71.1587 H         1 HBY         0.0341
     39 H17       143.9167  -33.2684   78.0381 H         1 HBY         0.0572
     40 H18       143.4609  -33.6307   76.3388 H         1 HBY         0.0572
     41 H19       142.3030  -32.7811   77.4178 H         1 HBY         0.0572
     42 H20       140.9353  -29.2129   71.6891 H         1 HBY         0.2309
@<TRIPOS>BOND
     1    1    2 1  
     2    1   13 1  
     3   16    1 1  
     4    2   17 am 
     5    2   21 2  
     6    4    3 ar 
     7    3    8 ar 
     8    3   17 1  
     9    4    5 ar 
    10   16    4 1  
    11    5    6 ar 
    12    6    7 ar 
    13    6   20 1  
    14    8    7 ar 
    15    9   16 am 
    16    9   18 2  
    17   19    9 1  
    18   10   11 1  
    19   10   12 1  
    20   10   19 1  
    21   13   22 1  
    22   22   14 1  
    23   20   15 1  
    24    1   23 1  
    25    5   24 1  
    26    7   25 1  
    27    8   26 1  
    28   10   27 1  
    29   11   28 1  
    30   11   29 1  
    31   11   30 1  
    32   12   31 1  
    33   12   32 1  
    34   12   33 1  
    35   13   34 1  
    36   13   35 1  
    37   14   36 1  
    38   14   37 1  
    39   14   38 1  
    40   15   39 1  
    41   15   40 1  
    42   15   41 1  
    43   17   42 1  
@<TRIPOS>SUBSTRUCTURE
     1 HBY         1

