### 
### Created by X-TOOL on Mon Sep 10 21:12:47 2018
### 

@<TRIPOS>MOLECULE
1bqo_ligand
   61    63     1     0     0
SMALL
GAST_HUCK


@<TRIPOS>ATOM
      1 C1          3.3340   48.5830   54.3740 C.ar      1 N25         0.0973
      2 C2          3.7130   49.4900   55.4530 C.ar      1 N25        -0.0440
      3 C3          3.2370   49.1770   56.7950 C.ar      1 N25        -0.0313
      4 C4          2.4180   47.9900   57.0030 C.ar      1 N25         0.0908
      5 C5          2.0140   47.1210   55.9120 C.ar      1 N25        -0.0313
      6 C6          2.4780   47.4190   54.5640 C.ar      1 N25        -0.0440
      7 O7          2.0120   47.5280   58.1940 O.3       1 N25        -0.3212
      8 C8          2.5440   48.0860   59.2890 C.3       1 N25         0.0594
      9 N9          3.5020   50.0930   51.9530 N.am      1 N25        -0.1951
     10 S10         4.0650   48.6710   52.7060 S.o2      1 N25         0.0691
     11 O11         5.5090   48.7260   52.7520 O.2       1 N25        -0.1513
     12 O12         3.7150   47.6060   51.8130 O.2       1 N25        -0.1513
     13 C13         2.1570   50.3200   51.4250 C.3       1 N25         0.2121
     14 N14         2.1750   50.9270   50.0930 N.am      1 N25        -0.1951
     15 C15         2.6570   52.3080   50.2790 C.3       1 N25         0.0406
     16 C16         3.9350   52.3800   51.0890 C.3       1 N25        -0.0004
     17 C17         3.9910   51.4430   52.2790 C.3       1 N25         0.0406
     18 C18         3.9490   53.8060   51.5880 C.3       1 N25        -0.0568
     19 C19         5.1420   52.0030   50.2370 C.3       1 N25        -0.0568
     20 S20         0.8660   50.6730   49.0300 S.o2      1 N25         0.0691
     21 O21         0.6910   49.2620   48.7570 O.2       1 N25        -0.1513
     22 O22         1.1610   51.4860   47.8860 O.2       1 N25        -0.1513
     23 C23         0.8890   50.1660   52.2680 C.2       1 N25         0.2407
     24 N25         0.2950   48.9820   52.3440 N.am      1 N25        -0.1612
     25 C27        -0.7000   51.3100   49.6620 C.ar      1 N25         0.0973
     26 C28        -1.6180   50.2390   50.0370 C.ar      1 N25        -0.0440
     27 C29        -2.9690   50.6320   50.3930 C.ar      1 N25        -0.0313
     28 C30        -3.2890   52.0490   50.3410 C.ar      1 N25         0.0908
     29 C31        -2.3560   53.1080   49.9980 C.ar      1 N25        -0.0313
     30 C32        -0.9980   52.7370   49.6400 C.ar      1 N25        -0.0440
     31 O33        -4.5680   52.3730   50.5330 O.3       1 N25        -0.3212
     32 C34        -5.2220   52.1800   49.3750 C.3       1 N25         0.0594
     33 O24         0.3980   51.1110   52.8920 O.2       1 N25        -0.3930
     34 O26        -0.9690   49.1610   52.9340 O.3       1 N25        -0.2716
     35 H1          4.3257   50.3639   55.2635 H         1 N25         0.0608
     36 H2          3.4898   49.8209   57.6296 H         1 N25         0.0542
     37 H3          1.3770   46.2639   56.0980 H         1 N25         0.0542
     38 H4          2.1947   46.7927   53.7258 H         1 N25         0.0608
     39 H5          2.1204   47.6101   60.1857 H         1 N25         0.0577
     40 H6          2.3137   49.1615   59.3013 H         1 N25         0.0577
     41 H7          3.6348   47.9446   59.2795 H         1 N25         0.0577
     42 H8          2.0588   49.2962   51.0348 H         1 N25         0.0984
     43 H9          2.8425   52.7516   49.2897 H         1 N25         0.0486
     44 H10         1.8782   52.8848   50.7993 H         1 N25         0.0486
     45 H11         5.0338   51.3681   52.6210 H         1 N25         0.0486
     46 H12         3.3694   51.8588   53.0857 H         1 N25         0.0486
     47 H13         4.8491   53.9721   52.1982 H         1 N25         0.0236
     48 H14         3.0529   53.9895   52.1990 H         1 N25         0.0236
     49 H15         3.9553   54.4946   50.7302 H         1 N25         0.0236
     50 H16         6.0550   52.0632   50.8476 H         1 N25         0.0236
     51 H17         5.2225   52.6973   49.3876 H         1 N25         0.0236
     52 H18         5.0193   50.9765   49.8612 H         1 N25         0.0236
     53 H19         0.6798   48.1122   52.0350 H         1 N25         0.2217
     54 H20        -1.3060   49.2009   50.0490 H         1 N25         0.0608
     55 H21        -3.7104   49.8976   50.6862 H         1 N25         0.0542
     56 H22        -2.6647   54.1471   50.0089 H         1 N25         0.0542
     57 H23        -0.2515   53.4762   49.3727 H         1 N25         0.0608
     58 H24        -6.2828   52.4404   49.5052 H         1 N25         0.0577
     59 H25        -5.1375   51.1243   49.0777 H         1 N25         0.0577
     60 H26        -4.7812   52.8173   48.5943 H         1 N25         0.0577
     61 H27        -1.4097   48.3218   52.9966 H         1 N25         0.2490
@<TRIPOS>BOND
     1    9   13 1  
     2    9   17 1  
     3   17   16 1  
     4   16   19 1  
     5   16   18 1  
     6   16   15 1  
     7   14   15 1  
     8   14   20 am 
     9   13   14 1  
    10   13   23 1  
    11   23   33 2  
    12   23   24 am 
    13   24   34 1  
    14   20   25 1  
    15   20   22 2  
    16   20   21 2  
    17   25   30 ar 
    18   25   26 ar 
    19   26   27 ar 
    20   27   28 ar 
    21   28   31 1  
    22   29   28 ar 
    23   30   29 ar 
    24   31   32 1  
    25   10    1 1  
    26    1    6 ar 
    27    1    2 ar 
    28    2    3 ar 
    29    3    4 ar 
    30    4    7 1  
    31    5    4 ar 
    32    6    5 ar 
    33    7    8 1  
    34   10   12 2  
    35   10   11 2  
    36   10    9 am 
    37    2   35 1  
    38    3   36 1  
    39    5   37 1  
    40    6   38 1  
    41    8   39 1  
    42    8   40 1  
    43    8   41 1  
    44   13   42 1  
    45   15   43 1  
    46   15   44 1  
    47   17   45 1  
    48   17   46 1  
    49   18   47 1  
    50   18   48 1  
    51   18   49 1  
    52   19   50 1  
    53   19   51 1  
    54   19   52 1  
    55   24   53 1  
    56   26   54 1  
    57   27   55 1  
    58   29   56 1  
    59   30   57 1  
    60   32   58 1  
    61   32   59 1  
    62   32   60 1  
    63   34   61 1  
@<TRIPOS>SUBSTRUCTURE
     1 N25         1

