### 
### Created by X-TOOL on Mon Sep 10 21:12:46 2018
### 

@<TRIPOS>MOLECULE
1br5_ligand
   29    30     1     0     0
SMALL
GAST_HUCK


@<TRIPOS>ATOM
      1 N2          1.5530    0.2000    8.7160 N.am      1 NEO        -0.1727
      2 C1          0.4910    0.6730    8.0140 C.2       1 NEO         0.2597
      3 C10         0.6880    1.3640    6.8030 C.ar      1 NEO         0.1482
      4 N9         -0.2930    1.8640    5.9930 N.ar      1 NEO        -0.2639
      5 C8          0.0180    2.5660    4.8470 C.ar      1 NEO         0.0826
      6 C7          1.3970    2.7510    4.5250 C.ar      1 NEO         0.0352
      7 N6          2.3650    2.2240    5.3160 N.ar      1 NEO        -0.2812
      8 C5          2.0460    1.5410    6.4300 C.ar      1 NEO         0.0962
      9 N4          3.0470    1.0660    7.1590 N.2       1 NEO        -0.2823
     10 C3          2.8270    0.3950    8.2910 C.2       1 NEO         0.2384
     11 N13         3.8670    0.2480    9.1050 N.pl3     1 NEO        -0.2777
     12 C16        -1.1430    3.1220    3.9790 C.3       1 NEO         0.1343
     13 O21        -2.4010    2.6330    4.4350 O.3       1 NEO        -0.3744
     14 C26        -1.2830    4.6450    3.8280 C.3       1 NEO         0.1156
     15 O22        -2.5800    5.0780    4.3140 O.3       1 NEO        -0.3847
     16 C28        -1.0770    5.1640    2.3550 C.3       1 NEO         0.0746
     17 O24        -0.0520    4.4460    1.6220 O.3       1 NEO        -0.3922
     18 O11        -0.7550    0.6090    8.6080 O.2       1 NEO        -0.3771
     19 H1          1.3926   -0.3033    9.5651 H         1 NEO         0.2533
     20 H2          1.6722    3.3166    3.6422 H         1 NEO         0.0871
     21 H3          4.8225    0.4030    8.7530 H         1 NEO         0.1916
     22 H4          3.7176   -0.0210   10.0880 H         1 NEO         0.1916
     23 H5         -0.9725    2.7247    2.9675 H         1 NEO         0.0809
     24 H6         -3.0726    2.8480    3.7985 H         1 NEO         0.2134
     25 H7         -0.5072    5.1097    4.4542 H         1 NEO         0.0667
     26 H8         -2.7046    4.7652    5.2024 H         1 NEO         0.2102
     27 H9         -0.7940    6.2261    2.3974 H         1 NEO         0.0585
     28 H10        -2.0288    5.0594    1.8136 H         1 NEO         0.0585
     29 H11         0.7794    4.5353    2.0728 H         1 NEO         0.2095
@<TRIPOS>BOND
     1    1   10 am 
     2    1    2 am 
     3    2   18 2  
     4    2    3 1  
     5    3    8 ar 
     6    3    4 ar 
     7    4    5 ar 
     8    5   12 1  
     9    5    6 ar 
    10    6    7 ar 
    11    7    8 ar 
    12    8    9 1  
    13    9   10 2  
    14   10   11 1  
    15   12   14 1  
    16   12   13 1  
    17   14   16 1  
    18   14   15 1  
    19   16   17 1  
    20    1   19 1  
    21    6   20 1  
    22   11   21 1  
    23   11   22 1  
    24   12   23 1  
    25   13   24 1  
    26   14   25 1  
    27   15   26 1  
    28   16   27 1  
    29   16   28 1  
    30   17   29 1  
@<TRIPOS>SUBSTRUCTURE
     1 NEO         1

