### 
### Created by X-TOOL on Mon Sep 10 21:12:46 2018
### 

@<TRIPOS>MOLECULE
1br6_ligand
   34    36     1     0     0
SMALL
GAST_HUCK


@<TRIPOS>ATOM
      1 C2          0.6780    0.7050   10.6750 C.2       1 PT1         0.2597
      2 C3          0.7980    1.3100    9.4140 C.ar      1 PT1         0.1482
      3 C5          2.1250    1.5180    8.9350 C.ar      1 PT1         0.0962
      4 N6         -0.2510    1.6380    8.6590 N.ar      1 PT1        -0.2646
      5 C7          2.9780    0.6080   10.8590 C.2       1 PT1         0.2384
      6 N9          3.2270    1.1720    9.6630 N.2       1 PT1        -0.2823
      7 C10        -0.0280    2.2070    7.4500 C.ar      1 PT1         0.0730
      8 N11         4.0760    0.3350   11.6120 N.pl3     1 PT1        -0.2777
      9 C12         1.2760    2.4270    6.9810 C.ar      1 PT1         0.0346
     10 C21        -0.1390    7.7190   10.8800 C.2       1 PT1         0.0542
     11 O22         0.9750    8.3470   11.0220 O.co2     1 PT1        -0.5642
     12 O1         -0.5690    0.4770   11.1970 O.2       1 PT1        -0.3771
     13 N4          1.7830    0.3570   11.4200 N.am      1 PT1        -0.1727
     14 N8          2.3360    2.0850    7.7300 N.ar      1 PT1        -0.2812
     15 C13        -1.2130    2.7380    6.6770 C.3       1 PT1         0.0758
     16 N14        -1.1070    4.1650    6.5300 N.pl3     1 PT1        -0.3078
     17 C15        -0.8550    4.9850    7.6240 C.ar      1 PT1         0.0430
     18 C16         0.1940    5.9150    7.5660 C.ar      1 PT1        -0.0404
     19 C17        -1.6500    4.9390    8.7720 C.ar      1 PT1        -0.0404
     20 C18         0.4380    6.7850    8.6300 C.ar      1 PT1        -0.0593
     21 C19        -1.3980    5.8170    9.8350 C.ar      1 PT1        -0.0593
     22 C20        -0.3630    6.7460    9.7560 C.ar      1 PT1        -0.0033
     23 O23        -1.0860    7.9440   11.7240 O.co2     1 PT1        -0.5642
     24 H1          5.0174    0.5083   11.2316 H         1 PT1         0.1916
     25 H2          3.9667   -0.0452   12.5630 H         1 PT1         0.1916
     26 H3          1.4285    2.8765    6.0065 H         1 PT1         0.0871
     27 H4          1.7007   -0.0584   12.3259 H         1 PT1         0.2533
     28 H5         -2.1392    2.4958    7.2188 H         1 PT1         0.0702
     29 H6         -1.2374    2.2704    5.6816 H         1 PT1         0.0702
     30 H7         -1.2199    4.5870    5.5972 H         1 PT1         0.1796
     31 H8          0.8227    5.9584    6.6840 H         1 PT1         0.0524
     32 H9         -2.4619    4.2241    8.8406 H         1 PT1         0.0524
     33 H10         1.2572    7.4926    8.5732 H         1 PT1         0.0617
     34 H11        -2.0137    5.7728   10.7261 H         1 PT1         0.0617
@<TRIPOS>BOND
     1    1   13 am 
     2    1   12 2  
     3    1    2 1  
     4    2    4 ar 
     5    2    3 ar 
     6    3   14 ar 
     7    3    6 1  
     8    6    5 2  
     9    5    8 1  
    10    5   13 am 
    11   14    9 ar 
    12    9    7 ar 
    13    7   15 1  
    14    7    4 ar 
    15   15   16 1  
    16   16   17 1  
    17   17   19 ar 
    18   17   18 ar 
    19   18   20 ar 
    20   20   22 ar 
    21   22   10 1  
    22   22   21 ar 
    23   21   19 ar 
    24   10   23 ar 
    25   10   11 ar 
    26    8   24 1  
    27    8   25 1  
    28    9   26 1  
    29   13   27 1  
    30   15   28 1  
    31   15   29 1  
    32   16   30 1  
    33   18   31 1  
    34   19   32 1  
    35   20   33 1  
    36   21   34 1  
@<TRIPOS>SUBSTRUCTURE
     1 PT1         1

