### 
### Created by X-TOOL on Mon Sep 10 21:12:45 2018
### 

@<TRIPOS>MOLECULE
1bra_ligand
   18    18     1     0     0
SMALL
GAST_HUCK


@<TRIPOS>ATOM
      1 C1          7.7880   49.7690   56.0970 C.ar      1 BEN         0.0260
      2 C2          7.8850   48.6980   56.9630 C.ar      1 BEN        -0.0565
      3 C3          8.0550   47.3800   56.4870 C.ar      1 BEN        -0.0618
      4 C4          8.2440   47.1990   55.1090 C.ar      1 BEN        -0.0618
      5 C5          8.2130   48.3080   54.2510 C.ar      1 BEN        -0.0618
      6 C6          8.0090   49.5910   54.7610 C.ar      1 BEN        -0.0565
      7 C7          7.6200   51.0570   56.5970 C.cat     1 BEN         0.2356
      8 N1          7.6870   51.1530   57.9300 N.pl3     1 BEN        -0.2721
      9 N2          7.4310   52.0900   55.8010 N.pl3     1 BEN        -0.2721
     10 H1          7.8294   48.8730   58.0313 H         1 BEN         0.0617
     11 H2          8.0400   46.5344   57.1651 H         1 BEN         0.0618
     12 H3          8.4134   46.2059   54.7088 H         1 BEN         0.0618
     13 H4          8.3484   48.1677   53.1847 H         1 BEN         0.0618
     14 H5          8.0260   50.4470   54.0962 H         1 BEN         0.0617
     15 H6          7.5737   52.0692   58.3867 H         1 BEN         0.3181
     16 H7          7.8519   50.3107   58.4994 H         1 BEN         0.3181
     17 H8          7.3884   51.9532   54.7810 H         1 BEN         0.3181
     18 H9          7.3259   53.0343   56.1988 H         1 BEN         0.3181
@<TRIPOS>BOND
     1    1    2 ar 
     2    1    6 ar 
     3    1    7 1  
     4    2    3 ar 
     5    3    4 ar 
     6    4    5 ar 
     7    6    5 ar 
     8    7    8 ar 
     9    7    9 ar 
    10    2   10 1  
    11    3   11 1  
    12    4   12 1  
    13    5   13 1  
    14    6   14 1  
    15    8   15 1  
    16    8   16 1  
    17    9   17 1  
    18    9   18 1  
@<TRIPOS>SUBSTRUCTURE
     1 BEN         1

