### 
### Created by X-TOOL on Mon Sep 10 21:12:45 2018
### 

@<TRIPOS>MOLECULE
1bty_ligand
   18    18     1     0     0
SMALL
GAST_HUCK


@<TRIPOS>ATOM
      1 C1         29.1530   14.9380   16.6130 C.ar      1 BEN         0.0260
      2 C2         28.7170   15.5690   17.7790 C.ar      1 BEN        -0.0565
      3 C3         28.3690   14.8750   18.9190 C.ar      1 BEN        -0.0618
      4 C4         28.4450   13.5150   18.9280 C.ar      1 BEN        -0.0618
      5 C5         28.8680   12.8610   17.7990 C.ar      1 BEN        -0.0618
      6 C6         29.2190   13.5540   16.6600 C.ar      1 BEN        -0.0565
      7 C          29.4980   15.6480   15.4570 C.cat     1 BEN         0.2356
      8 N1         30.2210   15.0460   14.5320 N.pl3     1 BEN        -0.2721
      9 N2         29.0940   16.8930   15.3220 N.pl3     1 BEN        -0.2721
     10 H1         28.6490   16.6508   17.7891 H         1 BEN         0.0617
     11 H2         28.0371   15.4085   19.8023 H         1 BEN         0.0618
     12 H3         28.1744   12.9563   19.8167 H         1 BEN         0.0618
     13 H4         28.9275   11.7786   17.8023 H         1 BEN         0.0618
     14 H5         29.5525   13.0070   15.7856 H         1 BEN         0.0617
     15 H6         30.4849   15.5519   13.6745 H         1 BEN         0.3181
     16 H7         30.5215   14.0702   14.6674 H         1 BEN         0.3181
     17 H8         28.5306   17.3348   16.0625 H         1 BEN         0.3181
     18 H9         29.3412   17.4258   14.4759 H         1 BEN         0.3181
@<TRIPOS>BOND
     1    1    2 ar 
     2    1    6 ar 
     3    1    7 1  
     4    2    3 ar 
     5    3    4 ar 
     6    4    5 ar 
     7    5    6 ar 
     8    7    8 ar 
     9    7    9 ar 
    10    2   10 1  
    11    3   11 1  
    12    4   12 1  
    13    5   13 1  
    14    6   14 1  
    15    8   15 1  
    16    8   16 1  
    17    9   17 1  
    18    9   18 1  
@<TRIPOS>SUBSTRUCTURE
     1 BEN         1

