### 
### Created by X-TOOL on Mon Sep 10 21:12:46 2018
### 

@<TRIPOS>MOLECULE
1bv7_ligand
   92    98     1     0     0
SMALL
GAST_HUCK


@<TRIPOS>ATOM
      1 O1         -8.2430   14.2270   27.8650 O.2       1 XV6        -0.4002
      2 O4        -11.6970   18.6910   28.8770 O.3       1 XV6        -0.3867
      3 O5        -10.1040   19.4920   26.7500 O.3       1 XV6        -0.3867
      4 N2         -9.6530   15.5740   28.9000 N.am      1 XV6        -0.2403
      5 N7         -8.6860   16.0930   26.7920 N.am      1 XV6        -0.2403
      6 C1         -8.8590   15.2820   27.8520 C.2       1 XV6         0.2671
      7 C2         -9.4210   14.8150   30.1350 C.3       1 XV6         0.0693
      8 C3        -10.8120   16.4720   28.8620 C.3       1 XV6         0.0853
      9 C4        -10.5490   17.9400   28.5430 C.3       1 XV6         0.1081
     10 C5        -10.1940   18.1360   27.0840 C.3       1 XV6         0.1081
     11 C6         -8.8130   17.5770   26.8230 C.3       1 XV6         0.0853
     12 C7         -8.1030   15.4680   25.5980 C.3       1 XV6         0.0693
     13 C31       -11.9110   15.7320   28.0640 C.3       1 XV6         0.0067
     14 C32       -12.4430   14.5300   28.8380 C.ar      1 XV6        -0.0408
     15 C33       -12.0720   13.2140   28.4610 C.ar      1 XV6        -0.0603
     16 C34       -12.5160   12.1090   29.2130 C.ar      1 XV6        -0.0686
     17 C35       -13.3410   12.3170   30.3340 C.ar      1 XV6        -0.0687
     18 C36       -13.7300   13.6240   30.7140 C.ar      1 XV6        -0.0686
     19 C37       -13.2800   14.7330   29.9690 C.ar      1 XV6        -0.0603
     20 C61        -7.6910   18.2320   27.6940 C.3       1 XV6         0.0067
     21 C62        -6.2560   17.9800   27.2390 C.ar      1 XV6        -0.0408
     22 C63        -5.4580   17.0400   27.9170 C.ar      1 XV6        -0.0603
     23 C64        -4.1510   16.7630   27.4770 C.ar      1 XV6        -0.0686
     24 C65        -3.6460   17.4290   26.3490 C.ar      1 XV6        -0.0687
     25 C66        -4.4350   18.3700   25.6670 C.ar      1 XV6        -0.0686
     26 C67        -5.7400   18.6580   26.1110 C.ar      1 XV6        -0.0603
     27 C20        -9.3280   15.5970   31.4190 C.ar      1 XV6        -0.0155
     28 C21        -9.9950   15.1080   32.5500 C.ar      1 XV6        -0.0381
     29 C22        -9.8980   15.7970   33.7780 C.ar      1 XV6         0.0516
     30 C23        -9.1240   16.9690   33.8790 C.ar      1 XV6        -0.0482
     31 C24        -8.4510   17.4570   32.7470 C.ar      1 XV6        -0.0628
     32 C25        -8.5610   16.7810   31.5190 C.ar      1 XV6        -0.0541
     33 C26       -10.6520   15.3130   34.9700 C.2       1 XV6         0.2423
     34 O26       -10.9690   16.0140   35.9200 O.2       1 XV6        -0.3680
     35 N26       -10.9160   14.0010   34.9010 N.am      1 XV6        -0.1936
     36 N27       -11.5460   11.8700   36.0350 N.2       1 XV6        -0.3232
     37 C27       -11.5190   13.2150   35.9800 C.2       1 XV6         0.2055
     38 C28       -12.2450   11.4030   37.1210 C.2       1 XV6        -0.0465
     39 S29       -12.3500   13.8740   37.2850 S.3       1 XV6         0.0111
     40 C29       -12.7900   12.3930   37.9650 C.2       1 XV6        -0.0078
     41 C70        -8.7890   15.7540   24.3020 C.ar      1 XV6        -0.0155
     42 C71        -7.9950   16.1060   23.2160 C.ar      1 XV6        -0.0381
     43 C72        -8.6020   16.4550   21.9900 C.ar      1 XV6         0.0516
     44 C73       -10.0140   16.4370   21.8470 C.ar      1 XV6        -0.0482
     45 C74       -10.8150   16.0590   22.9410 C.ar      1 XV6        -0.0628
     46 C75       -10.2000   15.7140   24.1620 C.ar      1 XV6        -0.0541
     47 C76        -7.7440   16.8520   20.8400 C.2       1 XV6         0.2423
     48 O76        -8.1120   17.6140   19.9660 O.2       1 XV6        -0.3680
     49 N76        -6.5180   16.3180   20.8490 N.am      1 XV6        -0.1936
     50 N77        -4.3330   16.0730   19.6910 N.2       1 XV6        -0.3232
     51 C77        -5.5610   16.6020   19.7850 C.2       1 XV6         0.2055
     52 C78        -3.6950   16.4540   18.5390 C.2       1 XV6        -0.0465
     53 S79        -5.9000   17.5780   18.4480 S.3       1 XV6         0.0111
     54 C79        -4.4200   17.3140   17.6890 C.2       1 XV6        -0.0078
     55 H1        -11.5276   19.6127   28.7209 H         1 XV6         0.2100
     56 H2        -10.9460   19.9085   26.8919 H         1 XV6         0.2100
     57 H3         -8.4754   14.2664   30.0130 H         1 XV6         0.0683
     58 H4        -10.2490   14.0990   30.2434 H         1 XV6         0.0683
     59 H5        -11.1850   16.5070   29.8962 H         1 XV6         0.0607
     60 H6         -9.7043   18.2883   29.1554 H         1 XV6         0.0645
     61 H7        -10.9440   17.6358   26.4538 H         1 XV6         0.0645
     62 H8         -8.5910   17.8911   25.7925 H         1 XV6         0.0607
     63 H9         -8.1139   14.3786   25.7502 H         1 XV6         0.0683
     64 H10        -7.0630   15.8157   25.5110 H         1 XV6         0.0683
     65 H11       -11.4887   15.3852   27.1094 H         1 XV6         0.0449
     66 H12       -12.7405   16.4271   27.8671 H         1 XV6         0.0449
     67 H13       -11.4445   13.0581   27.5910 H         1 XV6         0.0557
     68 H14       -12.2240   11.1042   28.9300 H         1 XV6         0.0599
     69 H15       -13.6825   11.4667   30.9131 H         1 XV6         0.0559
     70 H16       -14.3718   13.7716   31.5750 H         1 XV6         0.0599
     71 H17       -13.5711   15.7366   30.2574 H         1 XV6         0.0557
     72 H18        -7.7917   17.8449   28.7187 H         1 XV6         0.0449
     73 H19        -7.8575   19.3193   27.6947 H         1 XV6         0.0449
     74 H20        -5.8536   16.5253   28.7852 H         1 XV6         0.0557
     75 H21        -3.5385   16.0409   28.0048 H         1 XV6         0.0599
     76 H22        -2.6413   17.2158   26.0023 H         1 XV6         0.0559
     77 H23        -4.0376   18.8767   24.7950 H         1 XV6         0.0599
     78 H24        -6.3439   19.3936   25.5921 H         1 XV6         0.0557
     79 H25       -10.5851   14.2012   32.4819 H         1 XV6         0.0608
     80 H26        -9.0480   17.4918   34.8255 H         1 XV6         0.0611
     81 H27        -7.8471   18.3543   32.8200 H         1 XV6         0.0611
     82 H28        -8.0545   17.1700   30.6431 H         1 XV6         0.0593
     83 H29       -10.6849   13.5247   34.0526 H         1 XV6         0.2406
     84 H30       -12.3702   10.3392   37.3174 H         1 XV6         0.0498
     85 H31       -13.3748   12.2344   38.8699 H         1 XV6         0.0574
     86 H32        -6.9151   16.1124   23.3103 H         1 XV6         0.0608
     87 H33       -10.4715   16.7119   20.9035 H         1 XV6         0.0611
     88 H34       -11.8945   16.0334   22.8457 H         1 XV6         0.0611
     89 H35       -10.8131   15.4144   25.0043 H         1 XV6         0.0593
     90 H36        -6.2521   15.7126   21.5992 H         1 XV6         0.2406
     91 H37        -2.6898   16.1133   18.2954 H         1 XV6         0.0498
     92 H38        -4.0901   17.7241   16.7356 H         1 XV6         0.0574
@<TRIPOS>BOND
     1    1    6 2  
     2    6    4 am 
     3    6    5 am 
     4    5   11 1  
     5    5   12 1  
     6   12   41 1  
     7   41   46 ar 
     8   41   42 ar 
     9   42   43 ar 
    10   43   47 1  
    11   43   44 ar 
    12   44   45 ar 
    13   45   46 ar 
    14   47   49 am 
    15   47   48 2  
    16   49   51 am 
    17   51   50 2  
    18   51   53 1  
    19   53   54 1  
    20   54   52 2  
    21   52   50 1  
    22   11   20 1  
    23   11   10 1  
    24   10    3 1  
    25   10    9 1  
    26    9    2 1  
    27    9    8 1  
    28    8    4 1  
    29    8   13 1  
    30   13   14 1  
    31   14   19 ar 
    32   14   15 ar 
    33   15   16 ar 
    34   16   17 ar 
    35   17   18 ar 
    36   18   19 ar 
    37    4    7 1  
    38    7   27 1  
    39   27   32 ar 
    40   27   28 ar 
    41   28   29 ar 
    42   29   33 1  
    43   29   30 ar 
    44   30   31 ar 
    45   31   32 ar 
    46   33   35 am 
    47   33   34 2  
    48   35   37 am 
    49   37   36 2  
    50   37   39 1  
    51   39   40 1  
    52   40   38 2  
    53   38   36 1  
    54   20   21 1  
    55   21   26 ar 
    56   21   22 ar 
    57   22   23 ar 
    58   23   24 ar 
    59   24   25 ar 
    60   25   26 ar 
    61    2   55 1  
    62    3   56 1  
    63    7   57 1  
    64    7   58 1  
    65    8   59 1  
    66    9   60 1  
    67   10   61 1  
    68   11   62 1  
    69   12   63 1  
    70   12   64 1  
    71   13   65 1  
    72   13   66 1  
    73   15   67 1  
    74   16   68 1  
    75   17   69 1  
    76   18   70 1  
    77   19   71 1  
    78   20   72 1  
    79   20   73 1  
    80   22   74 1  
    81   23   75 1  
    82   24   76 1  
    83   25   77 1  
    84   26   78 1  
    85   28   79 1  
    86   30   80 1  
    87   31   81 1  
    88   32   82 1  
    89   35   83 1  
    90   38   84 1  
    91   40   85 1  
    92   42   86 1  
    93   44   87 1  
    94   45   88 1  
    95   46   89 1  
    96   49   90 1  
    97   52   91 1  
    98   54   92 1  
@<TRIPOS>SUBSTRUCTURE
     1 XV6         1

