### 
### Created by X-TOOL on Mon Sep 10 21:12:46 2018
### 

@<TRIPOS>MOLECULE
1bv9_ligand
   92    98     1     0     0
SMALL
GAST_HUCK


@<TRIPOS>ATOM
      1 O1         -8.2390   14.3320   27.7220 O.2       1 XV6        -0.4002
      2 O4        -11.7950   18.6220   28.9080 O.3       1 XV6        -0.3867
      3 O5        -10.2020   19.5890   26.8130 O.3       1 XV6        -0.3867
      4 N2         -9.7430   15.5500   28.7540 N.am      1 XV6        -0.2403
      5 N7         -8.7560   16.1960   26.6940 N.am      1 XV6        -0.2403
      6 C1         -8.9140   15.3440   27.7130 C.2       1 XV6         0.2671
      7 C2         -9.5310   14.7020   29.9520 C.3       1 XV6         0.0693
      8 C3        -10.8910   16.4960   28.7930 C.3       1 XV6         0.0853
      9 C4        -10.6320   17.9660   28.5120 C.3       1 XV6         0.1081
     10 C5        -10.3060   18.2140   27.0590 C.3       1 XV6         0.1081
     11 C6         -8.9190   17.6730   26.8080 C.3       1 XV6         0.0853
     12 C7         -8.1110   15.6540   25.4900 C.3       1 XV6         0.0693
     13 C31       -12.0880   15.8710   28.0530 C.3       1 XV6         0.0067
     14 C32       -12.5760   14.5920   28.7010 C.ar      1 XV6        -0.0408
     15 C33       -12.1550   13.3420   28.1920 C.ar      1 XV6        -0.0603
     16 C34       -12.5770   12.1610   28.8260 C.ar      1 XV6        -0.0686
     17 C35       -13.4130   12.2410   29.9600 C.ar      1 XV6        -0.0687
     18 C36       -13.8370   13.4820   30.4660 C.ar      1 XV6        -0.0686
     19 C37       -13.4130   14.6600   29.8300 C.ar      1 XV6        -0.0603
     20 C61        -7.8460   18.2500   27.7700 C.3       1 XV6         0.0067
     21 C62        -6.4390   18.0640   27.2370 C.ar      1 XV6        -0.0408
     22 C63        -6.0520   18.7140   26.0330 C.ar      1 XV6        -0.0603
     23 C64        -4.7630   18.5050   25.5020 C.ar      1 XV6        -0.0686
     24 C65        -3.8660   17.6400   26.1880 C.ar      1 XV6        -0.0687
     25 C66        -4.2540   16.9970   27.3950 C.ar      1 XV6        -0.0686
     26 C67        -5.5450   17.2120   27.9170 C.ar      1 XV6        -0.0603
     27 C20        -9.4360   15.4590   31.2520 C.ar      1 XV6        -0.0155
     28 C21       -10.1580   14.9800   32.3560 C.ar      1 XV6        -0.0381
     29 C22       -10.1200   15.6920   33.5740 C.ar      1 XV6         0.0516
     30 C23        -9.3610   16.8790   33.6870 C.ar      1 XV6        -0.0482
     31 C24        -8.6310   17.3640   32.5770 C.ar      1 XV6        -0.0628
     32 C25        -8.6650   16.6450   31.3610 C.ar      1 XV6        -0.0541
     33 C26       -10.8430   15.1710   34.7760 C.2       1 XV6         0.2423
     34 O26       -11.2560   15.8900   35.6740 O.2       1 XV6        -0.3680
     35 N26       -10.9650   13.8270   34.8140 N.am      1 XV6        -0.1936
     36 N27       -11.4430   11.8240   36.2210 N.2       1 XV6        -0.3232
     37 C27       -11.5290   13.1350   35.9790 C.2       1 XV6         0.2055
     38 C28       -12.0150   11.4550   37.4190 C.2       1 XV6        -0.0465
     39 S29       -12.3350   13.8870   37.2500 S.3       1 XV6         0.0111
     40 C29       -12.5850   12.4950   38.1650 C.2       1 XV6        -0.0078
     41 C70        -8.7550   15.9530   24.1770 C.ar      1 XV6        -0.0155
     42 C71        -7.9250   16.2440   23.0960 C.ar      1 XV6        -0.0381
     43 C72        -8.4890   16.5910   21.8560 C.ar      1 XV6         0.0516
     44 C73        -9.8870   16.6340   21.7010 C.ar      1 XV6        -0.0482
     45 C74       -10.7420   16.3210   22.7820 C.ar      1 XV6        -0.0628
     46 C75       -10.1650   15.9800   24.0230 C.ar      1 XV6        -0.0541
     47 C76        -7.6100   16.9420   20.7090 C.2       1 XV6         0.2423
     48 O76        -7.9370   17.7390   19.8510 O.2       1 XV6        -0.3680
     49 N76        -6.4120   16.3330   20.6950 N.am      1 XV6        -0.1936
     50 N77        -4.1470   16.0810   19.6590 N.2       1 XV6        -0.3232
     51 C77        -5.4020   16.5740   19.6430 C.2       1 XV6         0.2055
     52 C78        -3.4240   16.4260   18.5370 C.2       1 XV6        -0.0465
     53 S79        -5.6540   17.4750   18.2230 S.3       1 XV6         0.0111
     54 C79        -4.1090   17.2210   17.5870 C.2       1 XV6        -0.0078
     55 H1        -11.6873   19.5577   28.7841 H         1 XV6         0.2100
     56 H2        -11.0473   19.9994   26.9530 H         1 XV6         0.2100
     57 H3         -8.5950   14.1411   29.8132 H         1 XV6         0.0683
     58 H4        -10.3728   13.9979   30.0265 H         1 XV6         0.0683
     59 H5        -11.1938   16.5019   29.8505 H         1 XV6         0.0607
     60 H6         -9.7850   18.3156   29.1205 H         1 XV6         0.0645
     61 H7        -11.0553   17.7451   26.4043 H         1 XV6         0.0645
     62 H8         -8.6596   18.0594   25.8113 H         1 XV6         0.0607
     63 H9         -8.0738   14.5600   25.5986 H         1 XV6         0.0683
     64 H10        -7.0869   16.0540   25.4548 H         1 XV6         0.0683
     65 H11       -11.7846   15.6477   27.0195 H         1 XV6         0.0449
     66 H12       -12.9138   16.5976   28.0439 H         1 XV6         0.0449
     67 H13       -11.5123   13.2950   27.3203 H         1 XV6         0.0557
     68 H14       -12.2626   11.1955   28.4466 H         1 XV6         0.0599
     69 H15       -13.7341   11.3288   30.4498 H         1 XV6         0.0559
     70 H16       -14.4826   13.5290   31.3355 H         1 XV6         0.0599
     71 H17       -13.7313   15.6241   30.2098 H         1 XV6         0.0557
     72 H18        -7.9278   17.7378   28.7400 H         1 XV6         0.0449
     73 H19        -8.0338   19.3252   27.9061 H         1 XV6         0.0449
     74 H20        -6.7482   19.3703   25.5234 H         1 XV6         0.0557
     75 H21        -4.4598   18.9962   24.5845 H         1 XV6         0.0599
     76 H22        -2.8742   17.4690   25.7854 H         1 XV6         0.0559
     77 H23        -3.5597   16.3441   27.9115 H         1 XV6         0.0599
     78 H24        -5.8491   16.7250   28.8364 H         1 XV6         0.0557
     79 H25       -10.7407   14.0696   32.2738 H         1 XV6         0.0608
     80 H26        -9.3384   17.4189   34.6267 H         1 XV6         0.0611
     81 H27        -8.0520   18.2768   32.6581 H         1 XV6         0.0611
     82 H28        -8.0994   17.0012   30.5076 H         1 XV6         0.0593
     83 H29       -10.6630   13.2885   34.0273 H         1 XV6         0.2406
     84 H30       -12.0235   10.4220   37.7636 H         1 XV6         0.0498
     85 H31       -13.0833   12.4195   39.1304 H         1 XV6         0.0574
     86 H32        -6.8479   16.2029   23.2110 H         1 XV6         0.0608
     87 H33       -10.3124   16.9100   20.7429 H         1 XV6         0.0611
     88 H34       -11.8189   16.3426   22.6598 H         1 XV6         0.0611
     89 H35       -10.8032   15.7369   24.8648 H         1 XV6         0.0593
     90 H36        -6.1944   15.6888   21.4282 H         1 XV6         0.2406
     91 H37        -2.3929   16.1076   18.3910 H         1 XV6         0.0498
     92 H38        -3.7201   17.5928   16.6402 H         1 XV6         0.0574
@<TRIPOS>BOND
     1    1    6 2  
     2    6    4 am 
     3    6    5 am 
     4    5   11 1  
     5    5   12 1  
     6   12   41 1  
     7   41   46 ar 
     8   41   42 ar 
     9   42   43 ar 
    10   43   47 1  
    11   43   44 ar 
    12   44   45 ar 
    13   45   46 ar 
    14   47   49 am 
    15   47   48 2  
    16   49   51 am 
    17   51   50 2  
    18   51   53 1  
    19   53   54 1  
    20   54   52 2  
    21   52   50 1  
    22   11   20 1  
    23   11   10 1  
    24   10    3 1  
    25   10    9 1  
    26    9    2 1  
    27    9    8 1  
    28    8    4 1  
    29    8   13 1  
    30   13   14 1  
    31   14   19 ar 
    32   14   15 ar 
    33   15   16 ar 
    34   16   17 ar 
    35   17   18 ar 
    36   18   19 ar 
    37    4    7 1  
    38    7   27 1  
    39   27   32 ar 
    40   27   28 ar 
    41   28   29 ar 
    42   29   33 1  
    43   29   30 ar 
    44   30   31 ar 
    45   31   32 ar 
    46   33   35 am 
    47   33   34 2  
    48   35   37 am 
    49   37   36 2  
    50   37   39 1  
    51   39   40 1  
    52   40   38 2  
    53   38   36 1  
    54   20   21 1  
    55   21   26 ar 
    56   21   22 ar 
    57   22   23 ar 
    58   23   24 ar 
    59   24   25 ar 
    60   25   26 ar 
    61    2   55 1  
    62    3   56 1  
    63    7   57 1  
    64    7   58 1  
    65    8   59 1  
    66    9   60 1  
    67   10   61 1  
    68   11   62 1  
    69   12   63 1  
    70   12   64 1  
    71   13   65 1  
    72   13   66 1  
    73   15   67 1  
    74   16   68 1  
    75   17   69 1  
    76   18   70 1  
    77   19   71 1  
    78   20   72 1  
    79   20   73 1  
    80   22   74 1  
    81   23   75 1  
    82   24   76 1  
    83   25   77 1  
    84   26   78 1  
    85   28   79 1  
    86   30   80 1  
    87   31   81 1  
    88   32   82 1  
    89   35   83 1  
    90   38   84 1  
    91   40   85 1  
    92   42   86 1  
    93   44   87 1  
    94   45   88 1  
    95   46   89 1  
    96   49   90 1  
    97   52   91 1  
    98   54   92 1  
@<TRIPOS>SUBSTRUCTURE
     1 XV6         1

