### 
### Created by X-TOOL on Mon Sep 10 21:12:47 2018
### 

@<TRIPOS>MOLECULE
1bzf_ligand
   50    52     1     0     0
SMALL
GAST_HUCK


@<TRIPOS>ATOM
      1 N1          3.9530   -8.5550   -1.7280 N.ar      1 TMQ        -0.2995
      2 C2          3.7570   -7.4290   -1.0260 C.ar      1 TMQ         0.1546
      3 N3          2.6130   -6.7090   -1.1230 N.ar      1 TMQ        -0.2431
      4 C4          1.5980   -7.1090   -1.9510 C.ar      1 TMQ         0.1282
      5 C3A         3.0020   -9.0480   -2.5880 C.ar      1 TMQ         0.0147
      6 C4A         1.7290   -8.3270   -2.7520 C.ar      1 TMQ         0.0427
      7 C5          0.7400   -8.8960   -3.6890 C.ar      1 TMQ        -0.0242
      8 C6          1.0570  -10.1190   -4.3960 C.ar      1 TMQ        -0.0176
      9 C7          2.2900  -10.7630   -4.1970 C.ar      1 TMQ        -0.0629
     10 C8          3.2420  -10.2470   -3.3190 C.ar      1 TMQ        -0.0597
     11 C9          0.0630  -10.7340   -5.3690 C.3       1 TMQ         0.0512
     12 N10         0.4050  -12.1030   -5.7710 N.pl3     1 TMQ        -0.3233
     13 C11         0.3300  -13.1510   -4.8810 C.ar      1 TMQ         0.0108
     14 C12        -0.4640  -13.0590   -3.7030 C.ar      1 TMQ        -0.0351
     15 C13        -0.5330  -14.1690   -2.7840 C.ar      1 TMQ         0.1002
     16 C14         0.1940  -15.3520   -3.0690 C.ar      1 TMQ         0.1329
     17 C15         0.9880  -15.4550   -4.2400 C.ar      1 TMQ         0.1002
     18 C16         1.0520  -14.3370   -5.1510 C.ar      1 TMQ        -0.0351
     19 C17        -0.6090   -8.2500   -3.9480 C.3       1 TMQ        -0.0299
     20 O18        -1.3140  -14.1260   -1.5890 O.3       1 TMQ        -0.3311
     21 O19         0.1280  -16.4190   -2.1960 O.3       1 TMQ        -0.3381
     22 O20         1.6980  -16.6710   -4.4720 O.3       1 TMQ        -0.3311
     23 C21        -2.3510  -13.1460   -1.6530 C.3       1 TMQ         0.0562
     24 C22         1.2970  -16.4170   -1.4150 C.3       1 TMQ         0.0513
     25 C23         2.0310  -16.8500   -5.8490 C.3       1 TMQ         0.0562
     26 N24         4.7360   -6.9970   -0.1950 N.pl3     1 TMQ        -0.3088
     27 N25         0.5030   -6.2930   -1.9510 N.pl3     1 TMQ        -0.3090
     28 H1          2.5050  -11.6784   -4.7364 H         1 TMQ         0.0601
     29 H2          4.1835  -10.7684   -3.1899 H         1 TMQ         0.0508
     30 H3          0.0253  -10.1058   -6.2712 H         1 TMQ         0.0642
     31 H4         -0.9276  -10.7491   -4.8911 H         1 TMQ         0.0642
     32 H5          0.7074  -12.2838   -6.7389 H         1 TMQ         0.1744
     33 H6         -1.0190  -12.1512   -3.4957 H         1 TMQ         0.0324
     34 H7          1.6572  -14.4068   -6.0476 H         1 TMQ         0.0324
     35 H8         -0.7004   -7.3365   -3.3421 H         1 TMQ         0.0397
     36 H9         -1.4104   -8.9525   -3.6754 H         1 TMQ         0.0397
     37 H10        -0.6938   -7.9928   -5.0141 H         1 TMQ         0.0397
     38 H11        -2.9208  -13.1532   -0.7121 H         1 TMQ         0.0572
     39 H12        -3.0243  -13.3787   -2.4912 H         1 TMQ         0.0572
     40 H13        -1.9066  -12.1513   -1.8049 H         1 TMQ         0.0572
     41 H14         1.2680  -17.2604   -0.7094 H         1 TMQ         0.0563
     42 H15         1.3622  -15.4725   -0.8549 H         1 TMQ         0.0563
     43 H16         2.1754  -16.5166   -2.0695 H         1 TMQ         0.0563
     44 H17         2.5750  -17.7978   -5.9744 H         1 TMQ         0.0572
     45 H18         2.6652  -16.0161   -6.1843 H         1 TMQ         0.0572
     46 H19         1.1094  -16.8740   -6.4490 H         1 TMQ         0.0572
     47 H20         5.6119   -7.5320   -0.1091 H         1 TMQ         0.1825
     48 H21         4.6043   -6.1335    0.3509 H         1 TMQ         0.1825
     49 H22        -0.3075   -6.5188   -2.5451 H         1 TMQ         0.1872
     50 H23         0.4876   -5.4518   -1.3569 H         1 TMQ         0.1872
@<TRIPOS>BOND
     1    1    2 ar 
     2    5    1 ar 
     3    9   28 1  
     4    3    2 ar 
     5    2   26 1  
     6    4    3 ar 
     7    6    4 ar 
     8    4   27 1  
     9    6    5 ar 
    10   10    5 ar 
    11    7    6 ar 
    12    8    7 ar 
    13    7   19 1  
    14    8    9 ar 
    15   11    8 1  
    16    9   10 ar 
    17   10   29 1  
    18   11   30 1  
    19   12   11 1  
    20   11   31 1  
    21   12   32 1  
    22   13   12 1  
    23   14   33 1  
    24   14   13 ar 
    25   13   18 ar 
    26   15   14 ar 
    27   18   34 1  
    28   15   16 ar 
    29   20   15 1  
    30   16   17 ar 
    31   16   21 1  
    32   17   18 ar 
    33   17   22 1  
    34   19   35 1  
    35   19   36 1  
    36   19   37 1  
    37   23   38 1  
    38   20   23 1  
    39   21   24 1  
    40   22   25 1  
    41   23   39 1  
    42   23   40 1  
    43   24   41 1  
    44   24   42 1  
    45   24   43 1  
    46   25   44 1  
    47   25   45 1  
    48   25   46 1  
    49   26   47 1  
    50   26   48 1  
    51   27   49 1  
    52   27   50 1  
@<TRIPOS>SUBSTRUCTURE
     1 TMQ         1

