### 
### Created by X-TOOL on Mon Sep 10 21:12:47 2018
### 

@<TRIPOS>MOLECULE
1bzh_ligand
  114   115     1     0     0
SMALL
GAST_HUCK


@<TRIPOS>ATOM
      1 N          -9.4620   -3.1850   29.0710 N.am      1 ASP        -0.2634
      2 CA        -10.6110   -3.1350   29.9510 C.3       1 ASP         0.1422
      3 C          -9.9450   -2.8640   31.2740 C.2       1 ASP         0.2056
      4 O         -10.1130   -1.8140   31.8760 O.2       1 ASP        -0.3943
      5 CB        -11.2420   -4.5360   29.9310 C.3       1 ASP         0.0406
      6 CG        -10.1710   -5.5500   30.2490 C.2       1 ASP         0.0393
      7 OD1       -10.3600   -6.3920   31.1060 O.co2     1 ASP        -0.5688
      8 OD2        -9.1000   -5.4440   29.5600 O.co2     1 ASP        -0.5688
      9 N          -9.0430   -3.9250   31.6950 N.am      1 ALA        -0.2639
     10 CA         -8.4020   -3.5390   32.9180 C.3       1 ALA         0.1282
     11 C          -7.1270   -2.8380   32.5000 C.2       1 ALA         0.2037
     12 O          -6.6920   -2.9840   31.3770 O.2       1 ALA        -0.3944
     13 CB         -8.0950   -4.8010   33.7390 C.3       1 ALA        -0.0244
     14 N          -6.4480   -2.0200   33.4620 N.am      1 ASP        -0.2622
     15 CA         -5.2460   -1.3780   33.0820 C.3       1 ASP         0.1423
     16 C          -4.3780   -2.0850   32.0940 C.2       1 ASP         0.2056
     17 O          -3.9730   -1.4790   31.1060 O.2       1 ASP        -0.3943
     18 CB         -4.3610   -1.3400   34.3800 C.3       1 ASP         0.0406
     19 CG         -3.5020   -0.1100   34.2820 C.2       1 ASP         0.0393
     20 OD1        -2.8740    0.0720   33.2460 O.co2     1 ASP        -0.5688
     21 OD2        -3.4580    0.7060   35.2580 O.co2     1 ASP        -0.5688
     22 N          -3.9800   -3.4530   32.3620 N.am      1 GLU        -0.2635
     23 CA         -3.0790   -3.9640   31.3720 C.3       1 GLU         0.1325
     24 C          -3.6360   -4.8910   30.3210 C.2       1 GLU         0.2041
     25 O          -4.3430   -5.7640   30.8610 O.2       1 GLU        -0.3944
     26 CB         -2.0020   -4.7980   32.1130 C.3       1 GLU        -0.0008
     27 CG         -1.3580   -4.1910   33.3230 C.3       1 GLU         0.0044
     28 CD         -1.6510   -2.8020   33.7390 C.2       1 GLU         0.0350
     29 OE1        -2.0990   -1.8750   32.9710 O.co2     1 GLU        -0.5690
     30 OE2        -1.4230   -2.4860   34.9090 O.co2     1 GLU        -0.5690
     31 N          -3.3780   -4.9530   28.9460 N.am      1 FLT        -0.2621
     32 CA         -2.7760   -4.3250   27.8550 C.3       1 FLT         0.1390
     33 CB         -1.2520   -4.4320   27.6140 C.3       1 FLT         0.0163
     34 CG         -0.8780   -3.8660   26.2350 C.ar      1 FLT        -0.0493
     35 CD1        -0.5550   -2.5270   26.0550 C.ar      1 FLT        -0.0685
     36 CE1        -0.2250   -2.0300   24.7830 C.ar      1 FLT        -0.0397
     37 CD2        -0.8710   -4.7170   25.1270 C.ar      1 FLT        -0.0685
     38 CE2        -0.5350   -4.2400   23.8720 C.ar      1 FLT        -0.0397
     39 CZ         -0.2180   -2.8750   23.6800 C.ar      1 FLT         0.0857
     40 OH          0.1120   -2.4680   22.3910 O.3       1 FLT        -0.2809
     41 C1          0.8010   -1.2610   22.1440 C.3       1 FLT         0.3193
     42 C2          2.1870   -1.1490   22.7240 C.2       1 FLT         0.1187
     43 F1          0.0320   -0.2010   22.4880 F         1 FLT        -0.1991
     44 O1          1.1250   -0.1870   20.0630 O.co2     1 FLT        -0.5434
     45 O2          1.2510   -2.4910   20.2660 O.co2     1 FLT        -0.5434
     46 O3          2.4520   -0.0220   23.3840 O.co2     1 FLT        -0.5434
     47 O4          3.0660   -1.9710   22.5420 O.co2     1 FLT        -0.5434
     48 C3          1.0610   -1.2160   20.6460 C.2       1 FLT         0.1187
     49 O          -3.7150   -4.3730   25.6360 O.2       1 FLT        -0.3942
     50 C          -3.3280   -4.9900   26.5900 C.2       1 FLT         0.2057
     51 N          -3.3040   -6.4310   26.6380 N.am      1 LEU        -0.2636
     52 CA         -3.8490   -7.0710   25.4820 C.3       1 LEU         0.1312
     53 C          -5.3570   -7.0350   25.6560 C.2       1 LEU         0.2039
     54 O          -5.8240   -8.0300   26.1800 O.2       1 LEU        -0.3944
     55 CB         -3.5140   -8.5730   25.4410 C.3       1 LEU        -0.0101
     56 CG         -2.1260   -8.8280   24.8100 C.3       1 LEU        -0.0425
     57 CD1        -1.5780  -10.0770   25.5400 C.3       1 LEU        -0.0625
     58 CD2        -2.2900   -9.1490   23.3170 C.3       1 LEU        -0.0625
     59 N1         -6.0160   -5.8670   25.1800 N.am      1 AEA        -0.2629
     60 C1         -7.4290   -5.7260   25.3430 C.3       1 AEA         0.1397
     61 C3         -7.8560   -5.9350   26.8210 C.3       1 AEA         0.0363
     62 C2         -8.3530   -6.3100   24.3360 C.2       1 AEA         0.2000
     63 N2         -8.8890   -7.6430   24.4730 N.am      1 AEA        -0.2989
     64 S1         -7.3700   -4.3520   27.5930 S.3       1 AEA        -0.1344
     65 C4         -8.6190   -3.3140   26.7420 C.3       1 AEA         0.0836
     66 O1        -10.9730   -3.2560   27.3120 O.2       1 AEA        -0.3960
     67 C5         -9.8080   -3.2510   27.6750 C.2       1 AEA         0.1883
     68 O3         -8.7080   -5.6280   23.3690 O.2       1 AEA        -0.3947
     69 H1         -8.5182   -3.1747   29.4014 H         1 ASP         0.1884
     70 H2        -11.3414   -2.3593   29.6774 H         1 ASP         0.0819
     71 H3        -11.6611   -4.7396   28.9346 H         1 ASP         0.0478
     72 H4        -12.0419   -4.5931   30.6840 H         1 ASP         0.0478
     73 H5         -8.8939   -4.7861   31.2089 H         1 ALA         0.1883
     74 H6         -9.0421   -2.8606   33.5011 H         1 ALA         0.0797
     75 H7         -7.6026   -4.5153   34.6802 H         1 ALA         0.0277
     76 H8         -7.4296   -5.4606   33.1626 H         1 ALA         0.0277
     77 H9         -9.0330   -5.3306   33.9620 H         1 ALA         0.0277
     78 H10        -6.8171   -1.9054   34.3843 H         1 ASP         0.1884
     79 H11        -5.4779   -0.3684   32.7120 H         1 ASP         0.0819
     80 H12        -3.7301   -2.2394   34.4351 H         1 ASP         0.0478
     81 H13        -5.0005   -1.2854   35.2733 H         1 ASP         0.0478
     82 H14        -4.2985   -3.9808   33.1494 H         1 GLU         0.1883
     83 H15        -2.6165   -3.1053   30.8633 H         1 GLU         0.0801
     84 H16        -1.2019   -5.0167   31.3905 H         1 GLU         0.0330
     85 H17        -2.4763   -5.7382   32.4307 H         1 GLU         0.0330
     86 H18        -0.2721   -4.2423   33.1554 H         1 GLU         0.0433
     87 H19        -1.6285   -4.8335   34.1739 H         1 GLU         0.0433
     88 H20        -3.7986   -5.7940   28.6057 H         1 FLT         0.1885
     89 H21        -3.0470   -3.2598   27.8988 H         1 FLT         0.0821
     90 H22        -0.9521   -5.4892   27.6636 H         1 FLT         0.0453
     91 H23        -0.7226   -3.8637   28.3930 H         1 FLT         0.0453
     92 H24        -0.5576   -1.8569   26.9070 H         1 FLT         0.0530
     93 H25         0.0253   -0.9823   24.6615 H         1 FLT         0.0525
     94 H26        -1.1315   -5.7618   25.2516 H         1 FLT         0.0530
     95 H27        -0.5146   -4.9194   23.0276 H         1 FLT         0.0525
     96 H28        -2.9364   -6.9405   27.4159 H         1 LEU         0.1883
     97 H29        -3.5195   -6.5645   24.5628 H         1 LEU         0.0800
     98 H30        -4.2783   -9.0934   24.8451 H         1 LEU         0.0315
     99 H31        -3.5177   -8.9680   26.4676 H         1 LEU         0.0315
    100 H32        -1.4616   -7.9619   24.9454 H         1 LEU         0.0298
    101 H33        -0.5825  -10.3259   25.1437 H         1 LEU         0.0232
    102 H34        -2.2597  -10.9250   25.3780 H         1 LEU         0.0232
    103 H35        -1.5021   -9.8682   26.6173 H         1 LEU         0.0232
    104 H36        -2.6796   -8.2641   22.7924 H         1 LEU         0.0232
    105 H37        -2.9938   -9.9858   23.1970 H         1 LEU         0.0232
    106 H38        -1.3141   -9.4269   22.8923 H         1 LEU         0.0232
    107 H39        -5.4902   -5.1444   24.7312 H         1 AEA         0.1884
    108 H40        -7.5783   -4.6477   25.1852 H         1 AEA         0.0808
    109 H41        -7.3194   -6.7811   27.2750 H         1 AEA         0.0426
    110 H42        -8.9402   -6.1020   26.9028 H         1 AEA         0.0426
    111 H43        -9.5086   -8.0067   23.7774 H         1 AEA         0.1815
    112 H44        -8.6408   -8.2029   25.2635 H         1 AEA         0.1815
    113 H45        -8.9079   -3.7706   25.7839 H         1 AEA         0.0616
    114 H46        -8.2198   -2.3050   26.5618 H         1 AEA         0.0616
@<TRIPOS>BOND
     1    2    3 1  
     2    2    5 1  
     3    1    2 1  
     4    5    6 1  
     5    6    7 ar 
     6    6    8 ar 
     7    3    4 2  
     8   10   11 1  
     9   10   13 1  
    10    9   10 1  
    11   11   12 2  
    12   15   16 1  
    13   15   18 1  
    14   14   15 1  
    15   18   19 1  
    16   19   20 ar 
    17   19   21 ar 
    18   16   17 2  
    19   23   24 1  
    20   23   26 1  
    21   22   23 1  
    22   26   27 1  
    23   27   28 1  
    24   28   29 ar 
    25   28   30 ar 
    26   24   25 2  
    27   31   32 1  
    28   32   50 1  
    29   32   33 1  
    30   33   34 1  
    31   34   37 ar 
    32   34   35 ar 
    33   35   36 ar 
    34   36   39 ar 
    35   39   40 1  
    36   38   39 ar 
    37   37   38 ar 
    38   40   41 1  
    39   41   48 1  
    40   41   43 1  
    41   41   42 1  
    42   42   47 ar 
    43   42   46 ar 
    44   48   44 ar 
    45   48   45 ar 
    46   50   49 2  
    47   53   52 1  
    48   52   55 1  
    49   52   51 1  
    50   55   56 1  
    51   56   58 1  
    52   56   57 1  
    53   53   54 2  
    54   59   60 1  
    55   60   62 1  
    56   60   61 1  
    57   61   64 1  
    58   64   65 1  
    59   65   67 1  
    60   67   66 2  
    61   62   68 2  
    62   62   63 am 
    63    3    9 am 
    64   11   14 am 
    65   16   22 am 
    66   67    1 am 
    67   24   31 am 
    68   59   53 am 
    69   50   51 am 
    70    1   69 1  
    71    2   70 1  
    72    5   71 1  
    73    5   72 1  
    74    9   73 1  
    75   10   74 1  
    76   13   75 1  
    77   13   76 1  
    78   13   77 1  
    79   14   78 1  
    80   15   79 1  
    81   18   80 1  
    82   18   81 1  
    83   22   82 1  
    84   23   83 1  
    85   26   84 1  
    86   26   85 1  
    87   27   86 1  
    88   27   87 1  
    89   31   88 1  
    90   32   89 1  
    91   33   90 1  
    92   33   91 1  
    93   35   92 1  
    94   36   93 1  
    95   37   94 1  
    96   38   95 1  
    97   51   96 1  
    98   52   97 1  
    99   55   98 1  
   100   55   99 1  
   101   56  100 1  
   102   57  101 1  
   103   57  102 1  
   104   57  103 1  
   105   58  104 1  
   106   58  105 1  
   107   58  106 1  
   108   59  107 1  
   109   60  108 1  
   110   61  109 1  
   111   61  110 1  
   112   63  111 1  
   113   63  112 1  
   114   65  113 1  
   115   65  114 1  
@<TRIPOS>SUBSTRUCTURE
     1 ASP         1

