### 
### Created by X-TOOL on Mon Sep 10 21:12:47 2018
### 

@<TRIPOS>MOLECULE
1bzs_ligand
   46    49     1     0     0
SMALL
GAST_HUCK


@<TRIPOS>ATOM
      1 C1         30.3900   59.3230   55.7800 C.ar      1 BSI        -0.0754
      2 C2         30.4040   59.0550   54.3880 C.ar      1 BSI        -0.0653
      3 C3         29.4640   59.6780   53.5540 C.ar      1 BSI        -0.0221
      4 C7         29.5570   59.4040   52.1020 C.3       1 BSI         0.0632
      5 C9         27.1290   60.3290   52.0360 C.3       1 BSI         0.1033
      6 C10        27.4340   61.2220   53.2390 C.3       1 BSI         0.0104
      7 C16        27.6250   58.3170   49.3640 C.ar      1 BSI         0.1087
      8 C19        26.4710   55.9070   48.3830 C.ar      1 BSI        -0.0178
      9 C20        27.7630   55.9340   49.0370 C.ar      1 BSI        -0.0522
     10 C21        28.3570   57.1120   49.5420 C.ar      1 BSI        -0.0345
     11 C22        26.0010   54.6670   47.7170 C.ar      1 BSI        -0.0179
     12 C24        24.7090   53.5400   45.9710 C.ar      1 BSI        -0.0612
     13 C27        26.4680   53.3980   48.1780 C.ar      1 BSI        -0.0540
     14 O28        29.8250   59.6520   49.3690 O.2       1 BSI        -0.1499
     15 C4         28.4930   60.5630   54.0960 C.ar      1 BSI        -0.0360
     16 C5         28.4960   60.8580   55.4930 C.ar      1 BSI        -0.0666
     17 C6         29.4510   60.2230   56.3240 C.ar      1 BSI        -0.0755
     18 N8         28.4190   59.9900   51.3650 N.am      1 BSI        -0.2063
     19 S15        28.4470   59.8400   49.7700 S.o2      1 BSI         0.0740
     20 C17        26.3100   58.3200   48.8060 C.ar      1 BSI        -0.0345
     21 C18        25.7260   57.1190   48.3240 C.ar      1 BSI        -0.0522
     22 C23        25.1270   54.7500   46.6090 C.ar      1 BSI        -0.0540
     23 C25        25.1650   52.2760   46.4320 C.ar      1 BSI        -0.0617
     24 C26        26.0530   52.2050   47.5400 C.ar      1 BSI        -0.0612
     25 O29        27.6780   60.9140   49.2150 O.2       1 BSI        -0.1499
     26 C43        26.3880   59.0790   52.4950 C.2       1 BSI         0.0586
     27 O45        25.1420   59.0600   52.5280 O.co2     1 BSI        -0.5669
     28 O46        27.0290   58.0640   52.8840 O.co2     1 BSI        -0.5669
     29 H1         31.1057   58.8329   56.4301 H         1 BSI         0.0541
     30 H2         31.1363   58.3732   53.9710 H         1 BSI         0.0538
     31 H3         29.5626   58.3155   51.9436 H         1 BSI         0.0627
     32 H4         30.4924   59.8355   51.7163 H         1 BSI         0.0627
     33 H5         26.4904   60.8771   51.3277 H         1 BSI         0.0706
     34 H6         26.5185   61.3652   53.8318 H         1 BSI         0.0448
     35 H7         27.8003   62.1982   52.8884 H         1 BSI         0.0448
     36 H8         28.3031   55.0003   49.1447 H         1 BSI         0.0624
     37 H9         29.3202   57.0976   50.0390 H         1 BSI         0.0637
     38 H10        24.0347   53.5882   45.1236 H         1 BSI         0.0618
     39 H11        27.1453   53.3486   49.0229 H         1 BSI         0.0624
     40 H12        27.7795   61.5561   55.9105 H         1 BSI         0.0537
     41 H13        29.4601   60.4308   57.3879 H         1 BSI         0.0541
     42 H14        25.7527   59.2481   48.7500 H         1 BSI         0.0637
     43 H15        24.7222   57.1247   47.9148 H         1 BSI         0.0624
     44 H16        24.7803   55.7122   46.2498 H         1 BSI         0.0624
     45 H17        24.8366   51.3676   45.9400 H         1 BSI         0.0618
     46 H18        26.4095   51.2442   47.8934 H         1 BSI         0.0618
@<TRIPOS>BOND
     1    1   17 ar 
     2    1    2 ar 
     3    2    3 ar 
     4    3   15 ar 
     5    3    4 1  
     6    4   18 1  
     7   18   19 am 
     8   18    5 1  
     9    5   26 1  
    10    5    6 1  
    11    6   15 1  
    12   15   16 ar 
    13   16   17 ar 
    14   26   28 ar 
    15   26   27 ar 
    16   19   14 2  
    17   19   25 2  
    18   19    7 1  
    19    7   20 ar 
    20    7   10 ar 
    21   10    9 ar 
    22    9    8 ar 
    23    8   21 ar 
    24    8   11 1  
    25   11   22 ar 
    26   11   13 ar 
    27   13   24 ar 
    28   24   23 ar 
    29   23   12 ar 
    30   12   22 ar 
    31   21   20 ar 
    32    1   29 1  
    33    2   30 1  
    34    4   31 1  
    35    4   32 1  
    36    5   33 1  
    37    6   34 1  
    38    6   35 1  
    39    9   36 1  
    40   10   37 1  
    41   12   38 1  
    42   13   39 1  
    43   16   40 1  
    44   17   41 1  
    45   20   42 1  
    46   21   43 1  
    47   22   44 1  
    48   23   45 1  
    49   24   46 1  
@<TRIPOS>SUBSTRUCTURE
     1 BSI         1

