### 
### Created by X-TOOL on Mon Sep 10 21:12:47 2018
### 

@<TRIPOS>MOLECULE
1c12_ligand
   50    51     1     0     0
SMALL
GAST_HUCK


@<TRIPOS>ATOM
      1 C1         26.9270   62.5030  -10.7570 C.ar      1 TRZ        -0.0067
      2 C2         27.3010   62.1280   -9.4520 C.ar      1 TRZ        -0.0415
      3 C3         26.7680   62.8270   -8.3510 C.ar      1 TRZ        -0.0500
      4 C4         26.1900   64.0210   -8.5340 C.ar      1 TRZ        -0.0155
      5 C5         25.7490   64.4160   -9.7970 C.ar      1 TRZ        -0.0168
      6 C          26.1720   63.7000  -10.9170 C.ar      1 TRZ         0.0560
      7 C9         27.2110   62.6640   -6.9720 C.3       1 TRZ        -0.0429
      8 C10        26.5000   63.5520   -6.1160 C.3       1 TRZ        -0.0484
      9 C11        25.7730   64.5420   -7.1260 C.3       1 TRZ         0.0032
     10 C13        24.2910   64.4450   -6.8940 C.3       1 TRZ        -0.0304
     11 C12        23.5320   65.3830   -7.8170 C.3       1 TRZ        -0.0599
     12 C14        23.8930   64.9020   -5.5050 C.3       1 TRZ        -0.0599
     13 C15        27.4390   64.2050   -5.2340 C.3       1 TRZ        -0.0675
     14 C16        26.8290   61.3240   -6.2400 C.3       1 TRZ        -0.0864
     15 C17        28.6570   62.6070   -6.7370 C.3       1 TRZ        -0.0864
     16 C7         27.3990   61.6090  -11.8910 C.3       1 TRZ        -0.0245
     17 C8         24.6860   65.1520  -12.4320 C.3       1 TRZ         0.0370
     18 C18        23.4560   64.4000  -12.8000 C.3       1 TRZ         0.0157
     19 C19        23.2500   64.4530  -14.2690 C.2       1 TRZ         0.0370
     20 O2         22.0780   64.5390  -14.7490 O.co2     1 TRZ        -0.5689
     21 O3         24.2630   64.4030  -15.0280 O.co2     1 TRZ        -0.5689
     22 C6         25.8390   64.1960  -12.1920 C.2       1 TRZ         0.1483
     23 O          26.6210   63.9680  -13.1550 O.2       1 TRZ        -0.3689
     24 H1         27.9931   61.3084   -9.2960 H         1 TRZ         0.0744
     25 H2         25.0869   65.2673   -9.9066 H         1 TRZ         0.0669
     26 H3         25.7554   63.0116   -5.5131 H         1 TRZ         0.0231
     27 H4         26.1058   65.5806   -6.9827 H         1 TRZ         0.0525
     28 H5         23.9739   63.4044   -7.0570 H         1 TRZ         0.0328
     29 H6         22.4526   65.2914   -7.6259 H         1 TRZ         0.0234
     30 H7         23.7429   65.1178   -8.8635 H         1 TRZ         0.0234
     31 H8         23.8508   66.4190   -7.6299 H         1 TRZ         0.0234
     32 H9         24.3976   64.2759   -4.7544 H         1 TRZ         0.0234
     33 H10        22.8033   64.8097   -5.3868 H         1 TRZ         0.0234
     34 H11        24.1893   65.9521   -5.3655 H         1 TRZ         0.0234
     35 H12        27.8981   63.4582   -4.5695 H         1 TRZ         0.0226
     36 H13        26.9119   64.9583   -4.6301 H         1 TRZ         0.0226
     37 H14        28.2221   64.6957   -5.8306 H         1 TRZ         0.0226
     38 H15        27.2955   60.4754   -6.7618 H         1 TRZ         0.0128
     39 H16        25.7358   61.2018   -6.2457 H         1 TRZ         0.0128
     40 H17        27.1888   61.3582   -5.2011 H         1 TRZ         0.0128
     41 H18        29.1366   63.4888   -7.1869 H         1 TRZ         0.0128
     42 H19        29.0669   61.6939   -7.1933 H         1 TRZ         0.0128
     43 H20        28.8524   62.5956   -5.6546 H         1 TRZ         0.0128
     44 H21        27.9584   60.7569  -11.4776 H         1 TRZ         0.0398
     45 H22        28.0517   62.1842  -12.5641 H         1 TRZ         0.0398
     46 H23        26.5287   61.2385  -12.4524 H         1 TRZ         0.0398
     47 H24        24.4971   65.7292  -11.5149 H         1 TRZ         0.0506
     48 H25        24.9491   65.8389  -13.2499 H         1 TRZ         0.0506
     49 H26        22.5889   64.8496  -12.2940 H         1 TRZ         0.0455
     50 H27        23.5617   63.3516  -12.4845 H         1 TRZ         0.0455
@<TRIPOS>BOND
     1    1    2 ar 
     2    6    1 ar 
     3    1   16 1  
     4    2    3 ar 
     5    4    3 ar 
     6    3    7 1  
     7    5    4 ar 
     8    4    9 1  
     9    6    5 ar 
    10   22    6 1  
    11    8    7 1  
    12    7   14 1  
    13    7   15 1  
    14    9    8 1  
    15    8   13 1  
    16    9   10 1  
    17   10   11 1  
    18   10   12 1  
    19   17   18 1  
    20   17   22 1  
    21   18   19 1  
    22   19   20 ar 
    23   19   21 ar 
    24   22   23 2  
    25    2   24 1  
    26    5   25 1  
    27    8   26 1  
    28    9   27 1  
    29   10   28 1  
    30   11   29 1  
    31   11   30 1  
    32   11   31 1  
    33   12   32 1  
    34   12   33 1  
    35   12   34 1  
    36   13   35 1  
    37   13   36 1  
    38   13   37 1  
    39   14   38 1  
    40   14   39 1  
    41   14   40 1  
    42   15   41 1  
    43   15   42 1  
    44   15   43 1  
    45   16   44 1  
    46   16   45 1  
    47   16   46 1  
    48   17   47 1  
    49   17   48 1  
    50   18   49 1  
    51   18   50 1  
@<TRIPOS>SUBSTRUCTURE
     1 TRZ         1

