### 
### Created by X-TOOL on Mon Sep 10 21:12:47 2018
### 

@<TRIPOS>MOLECULE
1c1r_ligand
   37    40     1     0     0
SMALL
GAST_HUCK


@<TRIPOS>ATOM
      1 C1         45.3210   19.4680   52.8680 C.ar      1 BAI         0.0111
      2 C2         44.6780   19.0610   51.6400 C.ar      1 BAI        -0.0732
      3 C3         44.2480   20.0000   50.6810 C.ar      1 BAI        -0.0653
      4 C4         44.4900   21.3220   50.9910 C.ar      1 BAI         0.0217
      5 C5         45.0860   21.7150   52.1250 C.ar      1 BAI         0.0787
      6 C6         45.5140   20.8510   53.0820 C.ar      1 BAI        -0.0368
      7 C7         45.7430   18.5670   53.8490 C.cat     1 BAI         0.2293
      8 C8         44.6170   23.4360   51.0080 C.2       1 BAI         0.1412
      9 C9         44.4420   24.9350   50.5720 C.3       1 BAI         0.1108
     10 N1         46.5960   18.9460   54.7570 N.pl3     1 BAI        -0.2731
     11 N2         45.2890   17.3480   53.8450 N.pl3     1 BAI        -0.2731
     12 N3         44.2090   22.4040   50.3170 N.2       1 BAI        -0.3147
     13 N4         45.1560   23.0190   52.1120 N.pl3     1 BAI        -0.2443
     14 C1'        45.0370   25.3510   44.6310 C.ar      1 BAI        -0.0784
     15 C2'        45.7720   26.5360   44.9400 C.ar      1 BAI        -0.0765
     16 C3'        45.9600   26.9660   46.2830 C.ar      1 BAI        -0.0420
     17 C4'        45.3900   26.1690   47.2600 C.ar      1 BAI         0.0787
     18 C5'        44.6910   25.0430   46.9460 C.ar      1 BAI         0.0217
     19 C6'        44.4740   24.5750   45.6580 C.ar      1 BAI        -0.0653
     20 C8'        44.7250   25.2740   49.0560 C.2       1 BAI         0.1412
     21 N3'        45.3960   26.2880   48.5740 N.pl3     1 BAI        -0.2443
     22 N4'        44.3040   24.5340   48.0680 N.2       1 BAI        -0.3147
     23 H1         44.5221   18.0050   51.4511 H         1 BAI         0.0516
     24 H2         43.7592   19.7028   49.7603 H         1 BAI         0.0536
     25 H3         45.9908   21.2131   53.9856 H         1 BAI         0.0541
     26 H4         45.1280   25.5411   51.1820 H         1 BAI         0.0794
     27 H5         43.4037   25.2257   50.7896 H         1 BAI         0.0794
     28 H6         46.9073   18.2820   55.4803 H         1 BAI         0.3180
     29 H7         46.9594   19.9097   54.7519 H         1 BAI         0.3180
     30 H8         44.6144   17.0520   53.1251 H         1 BAI         0.3180
     31 H9         45.6041   16.6787   54.5617 H         1 BAI         0.3180
     32 H10        45.5664   23.6115   52.8478 H         1 BAI         0.2324
     33 H11        44.9128   25.0484   43.5975 H         1 BAI         0.0516
     34 H12        46.1965   27.1214   44.1324 H         1 BAI         0.0529
     35 H13        46.5163   27.8640   46.5263 H         1 BAI         0.0542
     36 H14        43.9086   23.6721   45.4577 H         1 BAI         0.0536
     37 H15        45.8449   27.0386   49.1181 H         1 BAI         0.2324
@<TRIPOS>BOND
     1    7    1 1  
     2    1    6 ar 
     3    1    2 ar 
     4    2    3 ar 
     5    3    4 ar 
     6    4   12 1  
     7    4    5 ar 
     8    5   13 1  
     9    6    5 ar 
    10   13    8 1  
    11   12    8 2  
    12    8    9 1  
    13    9   20 1  
    14   20   22 2  
    15   20   21 1  
    16   21   17 1  
    17   17   18 ar 
    18   17   16 ar 
    19   16   15 ar 
    20   15   14 ar 
    21   14   19 ar 
    22   18   19 ar 
    23   22   18 1  
    24    7   11 ar 
    25    7   10 ar 
    26    2   23 1  
    27    3   24 1  
    28    6   25 1  
    29    9   26 1  
    30    9   27 1  
    31   10   28 1  
    32   10   29 1  
    33   11   30 1  
    34   11   31 1  
    35   13   32 1  
    36   14   33 1  
    37   15   34 1  
    38   16   35 1  
    39   19   36 1  
    40   21   37 1  
@<TRIPOS>SUBSTRUCTURE
     1 BAI         1

