### 
### Created by X-TOOL on Mon Sep 10 21:12:47 2018
### 

@<TRIPOS>MOLECULE
1c1u_ligand
   37    40     1     0     0
SMALL
GAST_HUCK


@<TRIPOS>ATOM
      1 C1         11.7700  -11.8410   23.0670 C.ar      1 BAI         0.0111
      2 C2         12.2330  -10.6420   22.4680 C.ar      1 BAI        -0.0732
      3 C3         13.2390  -10.6310   21.4990 C.ar      1 BAI        -0.0653
      4 C4         13.7490  -11.8610   21.1600 C.ar      1 BAI         0.0217
      5 C5         13.3230  -13.0070   21.7150 C.ar      1 BAI         0.0787
      6 C6         12.3410  -13.0620   22.6640 C.ar      1 BAI        -0.0368
      7 C7         10.8040  -11.8370   24.0380 C.cat     1 BAI         0.2293
      8 C8         14.8610  -13.4670   20.3290 C.2       1 BAI         0.1412
      9 C9         15.9340  -14.2920   19.4750 C.3       1 BAI         0.1108
     10 N1         10.1410  -12.9340   24.2920 N.pl3     1 BAI        -0.2731
     11 N2         10.5790  -10.7240   24.6980 N.pl3     1 BAI        -0.2731
     12 N3         14.6910  -12.1700   20.3150 N.2       1 BAI        -0.3147
     13 N4         14.0170  -13.9780   21.1910 N.pl3     1 BAI        -0.2443
     14 C1'        17.0350  -11.5170   14.3500 C.ar      1 BAI        -0.0784
     15 C2'        16.5210  -12.6870   13.7390 C.ar      1 BAI        -0.0765
     16 C3'        16.0800  -13.7840   14.5190 C.ar      1 BAI        -0.0420
     17 C4'        16.1790  -13.6390   15.8930 C.ar      1 BAI         0.0787
     18 C5'        16.6740  -12.5160   16.4540 C.ar      1 BAI         0.0217
     19 C6'        17.1190  -11.4190   15.7430 C.ar      1 BAI        -0.0653
     20 C8'        16.1400  -13.8320   17.9970 C.2       1 BAI         0.1412
     21 N3'        15.8530  -14.4540   16.8710 N.pl3     1 BAI        -0.2443
     22 N4'        16.6380  -12.6680   17.7390 N.2       1 BAI        -0.3147
     23 H1         11.7905   -9.7006   22.7729 H         1 BAI         0.0516
     24 H2         13.5938   -9.7130   21.0446 H         1 BAI         0.0536
     25 H3         12.0162  -14.0054   23.0878 H         1 BAI         0.0541
     26 H4         15.6119  -15.3436   19.4573 H         1 BAI         0.0794
     27 H5         16.9035  -14.2140   19.9889 H         1 BAI         0.0794
     28 H6          9.4131  -12.9388   25.0207 H         1 BAI         0.3180
     29 H7         10.3463  -13.7939   23.7635 H         1 BAI         0.3180
     30 H8         11.1180   -9.8751   24.4750 H         1 BAI         0.3180
     31 H9          9.8636  -10.7001   25.4386 H         1 BAI         0.3180
     32 H10        13.9185  -14.9782   21.4165 H         1 BAI         0.2324
     33 H11        17.3663  -10.6899   13.7325 H         1 BAI         0.0516
     34 H12        16.4643  -12.7437   12.6580 H         1 BAI         0.0529
     35 H13        15.6869  -14.6869   14.0658 H         1 BAI         0.0542
     36 H14        17.5098  -10.5354   16.2345 H         1 BAI         0.0536
     37 H15        15.4506  -15.3974   16.7759 H         1 BAI         0.2324
@<TRIPOS>BOND
     1    7    1 1  
     2    1    6 ar 
     3    1    2 ar 
     4    2    3 ar 
     5    3    4 ar 
     6    4   12 1  
     7    4    5 ar 
     8    5   13 1  
     9    6    5 ar 
    10   13    8 1  
    11   12    8 2  
    12    8    9 1  
    13    9   20 1  
    14   20   22 2  
    15   20   21 1  
    16   21   17 1  
    17   17   18 ar 
    18   17   16 ar 
    19   16   15 ar 
    20   15   14 ar 
    21   14   19 ar 
    22   18   19 ar 
    23   22   18 1  
    24    7   11 ar 
    25    7   10 ar 
    26    2   23 1  
    27    3   24 1  
    28    6   25 1  
    29    9   26 1  
    30    9   27 1  
    31   10   28 1  
    32   10   29 1  
    33   11   30 1  
    34   11   31 1  
    35   13   32 1  
    36   14   33 1  
    37   15   34 1  
    38   16   35 1  
    39   19   36 1  
    40   21   37 1  
@<TRIPOS>SUBSTRUCTURE
     1 BAI         1

