### 
### Created by X-TOOL on Mon Sep 10 21:12:47 2018
### 

@<TRIPOS>MOLECULE
1c1v_ligand
   43    46     1     0     0
SMALL
GAST_HUCK


@<TRIPOS>ATOM
      1 C1         12.1640  -11.7770   22.9800 C.ar      1 BAB         0.0111
      2 C2         12.5660  -10.6550   22.2230 C.ar      1 BAB        -0.0732
      3 C3         13.6090  -10.7610   21.2660 C.ar      1 BAB        -0.0653
      4 C4         14.1930  -12.0100   21.1190 C.ar      1 BAB         0.0217
      5 C5         13.7970  -13.0620   21.8470 C.ar      1 BAB         0.0787
      6 C6         12.8100  -13.0040   22.7690 C.ar      1 BAB        -0.0368
      7 C7         11.1770  -11.7600   23.9320 C.cat     1 BAB         0.2293
      8 C8         15.3430  -13.7390   20.5970 C.2       1 BAB         0.1412
      9 C9         16.4040  -14.7280   19.9320 C.3       1 BAB         0.1108
     10 N1         10.4850  -12.8530   24.0440 N.pl3     1 BAB        -0.2731
     11 N2         10.9930  -10.7000   24.6810 N.pl3     1 BAB        -0.2731
     12 N3         15.1600  -12.4460   20.3430 N.2       1 BAB        -0.3147
     13 N4         14.4980  -14.1150   21.5260 N.pl3     1 BAB        -0.2443
     14 C1'        16.6910  -13.0370   14.2030 C.ar      1 BAB         0.0111
     15 C2'        17.2910  -11.9340   14.8800 C.ar      1 BAB        -0.0732
     16 C3'        17.4830  -11.9150   16.2530 C.ar      1 BAB        -0.0653
     17 C4'        17.0610  -13.0210   16.9290 C.ar      1 BAB         0.0217
     18 C5'        16.4840  -14.1050   16.3550 C.ar      1 BAB         0.0787
     19 C6'        16.2780  -14.1630   14.9870 C.ar      1 BAB        -0.0368
     20 C7'        16.5080  -12.9750   12.8200 C.cat     1 BAB         0.2293
     21 C8'        16.5740  -14.3440   18.4490 C.2       1 BAB         0.1412
     22 N1'        16.1700  -14.0620   12.1630 N.pl3     1 BAB        -0.2731
     23 N2'        16.6580  -11.8150   12.2100 N.pl3     1 BAB        -0.2731
     24 N3'        17.1100  -13.1940   18.2100 N.2       1 BAB        -0.3147
     25 N4'        16.1850  -14.9370   17.3350 N.pl3     1 BAB        -0.2443
     26 H1         12.0725   -9.7018   22.3744 H         1 BAB         0.0516
     27 H2         13.9326   -9.9086   20.6797 H         1 BAB         0.0536
     28 H3         12.5245  -13.8852   23.3321 H         1 BAB         0.0541
     29 H4         16.0423  -15.7641   20.0071 H         1 BAB         0.0794
     30 H5         17.3698  -14.6383   20.4508 H         1 BAB         0.0794
     31 H6          9.7267  -12.9136   24.7384 H         1 BAB         0.3180
     32 H7         10.6944  -13.6594   23.4384 H         1 BAB         0.3180
     33 H8         11.5768   -9.8630   24.5412 H         1 BAB         0.3180
     34 H9         10.2647  -10.7041   25.4093 H         1 BAB         0.3180
     35 H10        14.4052  -15.0597   21.9257 H         1 BAB         0.2324
     36 H11        17.6094  -11.0767   14.2979 H         1 BAB         0.0516
     37 H12        17.9407  -11.0721   16.7581 H         1 BAB         0.0536
     38 H13        15.8201  -15.0302   14.5251 H         1 BAB         0.0541
     39 H14        16.0329  -14.0255   11.1428 H         1 BAB         0.3180
     40 H15        16.0422  -14.9504   12.6683 H         1 BAB         0.3180
     41 H16        16.9235  -10.9794   12.7506 H         1 BAB         0.3180
     42 H17        16.5096  -11.7449   11.1932 H         1 BAB         0.3180
     43 H18        15.7388  -15.8613   17.2485 H         1 BAB         0.2324
@<TRIPOS>BOND
     1    7    1 1  
     2    1    6 ar 
     3    1    2 ar 
     4    2    3 ar 
     5    3    4 ar 
     6    4   12 1  
     7    4    5 ar 
     8    5   13 1  
     9    6    5 ar 
    10   13    8 1  
    11   12    8 2  
    12    8    9 1  
    13    9   21 1  
    14   21   25 1  
    15   21   24 2  
    16   24   17 1  
    17   17   18 ar 
    18   17   16 ar 
    19   16   15 ar 
    20   15   14 ar 
    21   14   20 1  
    22   14   19 ar 
    23   18   19 ar 
    24   25   18 1  
    25   20   22 ar 
    26   20   23 ar 
    27    7   11 ar 
    28    7   10 ar 
    29    2   26 1  
    30    3   27 1  
    31    6   28 1  
    32    9   29 1  
    33    9   30 1  
    34   10   31 1  
    35   10   32 1  
    36   11   33 1  
    37   11   34 1  
    38   13   35 1  
    39   15   36 1  
    40   16   37 1  
    41   19   38 1  
    42   22   39 1  
    43   22   40 1  
    44   23   41 1  
    45   23   42 1  
    46   25   43 1  
@<TRIPOS>SUBSTRUCTURE
     1 BAB         1

