### 
### Created by X-TOOL on Mon Sep 10 21:12:48 2018
### 

@<TRIPOS>MOLECULE
1c2t_ligand
   54    56     1     0     0
SMALL
GAST_HUCK


@<TRIPOS>ATOM
      1 N1         37.2490   23.5520    6.2040 N.2       1 NHS        -0.3092
      2 C2         36.1100   23.0840    6.6250 C.2       1 NHS         0.2302
      3 NA2        35.5530   23.5940    7.7620 N.pl3     1 NHS        -0.2808
      4 N3         35.4030   22.0400    5.8980 N.am      1 NHS        -0.1790
      5 C4         35.8910   21.4700    4.7420 C.2       1 NHS         0.2320
      6 O4         35.2380   20.5920    4.1870 O.2       1 NHS        -0.3870
      7 C4A        37.2200   21.9760    4.2090 C.ar      1 NHS         0.0499
      8 C5         37.8220   21.4700    3.0360 C.ar      1 NHS        -0.0502
      9 C6         39.0660   21.9820    2.5960 C.ar      1 NHS        -0.0436
     10 C7         39.7070   23.0110    3.3400 C.ar      1 NHS        -0.0653
     11 C8         39.1140   23.5300    4.5250 C.ar      1 NHS        -0.0622
     12 C8A        37.8800   23.0230    4.9790 C.ar      1 NHS        -0.0018
     13 C9         39.7120   21.4250    1.3180 C.3       1 NHS         0.0018
     14 C10        40.3330   19.9700    1.2600 C.3       1 NHS         0.0553
     15 C11        43.0650   19.2390    4.7430 C.ar      1 NHS         0.0430
     16 C12        41.8400   18.4840    4.6380 C.ar      1 NHS        -0.0482
     17 C13        40.9350   18.6980    3.5370 C.ar      1 NHS        -0.0523
     18 C14        41.2580   19.6720    2.5170 C.ar      1 NHS        -0.0206
     19 C15        42.4690   20.4070    2.6450 C.ar      1 NHS        -0.0523
     20 C16        43.3450   20.1930    3.7260 C.ar      1 NHS        -0.0482
     21 C          44.0680   19.0410    5.8940 C.2       1 NHS         0.2017
     22 O          43.8420   18.2050    6.8020 O.2       1 NHS        -0.3876
     23 N          45.2470   19.7960    5.8540 N.am      1 NHS        -0.2715
     24 CA         46.4410   19.8570    6.7800 C.3       1 NHS         0.0953
     25 CB         45.9820   19.7510    8.2740 C.3       1 NHS        -0.0064
     26 CG         45.6410   21.0710    9.0550 C.3       1 NHS         0.0038
     27 CD         45.5650   22.3450    8.2090 C.2       1 NHS         0.0350
     28 OE1        44.5160   22.8410    7.8240 O.co2     1 NHS        -0.5690
     29 OE2        46.7980   22.8640    7.9220 O.co2     1 NHS        -0.5690
     30 CT         47.6780   18.9280    6.4670 C.2       1 NHS         0.0601
     31 O1         47.6290   17.6910    6.4840 O.co2     1 NHS        -0.5666
     32 O2         48.8180   19.6310    6.1630 O.co2     1 NHS        -0.5666
     33 CA1        39.3970   18.7950    0.8920 C.2       1 NHS         0.0520
     34 OA1        39.9690   17.7990    0.4320 O.co2     1 NHS        -0.5658
     35 OA2        38.3270   19.0360    0.3330 O.co2     1 NHS        -0.5658
     36 H1         36.0409   24.3332    8.2877 H         1 NHS         0.1899
     37 H2         34.6447   23.2396    8.0943 H         1 NHS         0.1899
     38 H3         34.5239   21.7221    6.2531 H         1 NHS         0.2509
     39 H4         37.3297   20.6869    2.4708 H         1 NHS         0.0576
     40 H5         40.6583   23.4044    3.0004 H         1 NHS         0.0571
     41 H6         39.6125   24.3168    5.0795 H         1 NHS         0.0526
     42 H7         40.5252   22.1179    1.0563 H         1 NHS         0.0451
     43 H8         38.9356   21.4601    0.5395 H         1 NHS         0.0451
     44 H9         41.0286   20.0175    0.4092 H         1 NHS         0.0654
     45 H10        41.5976   17.7476    5.3957 H         1 NHS         0.0653
     46 H11        40.0138   18.1302    3.4732 H         1 NHS         0.0572
     47 H12        42.7226   21.1472    1.8947 H         1 NHS         0.0572
     48 H13        44.2595   20.7721    3.7850 H         1 NHS         0.0653
     49 H14        45.3112   20.4089    5.0664 H         1 NHS         0.1867
     50 H15        46.8325   20.8779    6.6596 H         1 NHS         0.0726
     51 H16        46.7898   19.2481    8.8258 H         1 NHS         0.0323
     52 H17        45.0795   19.1224    8.2914 H         1 NHS         0.0323
     53 H18        46.4166   21.2201    9.8207 H         1 NHS         0.0432
     54 H19        44.6654   20.9317    9.5436 H         1 NHS         0.0432
@<TRIPOS>BOND
     1    1    2 2  
     2   12    1 1  
     3    2    3 1  
     4    4    2 am 
     5    5    4 am 
     6    5    6 2  
     7    7    5 1  
     8    8    7 ar 
     9    7   12 ar 
    10    9    8 ar 
    11    9   10 ar 
    12   13    9 1  
    13   10   11 ar 
    14   11   12 ar 
    15   14   13 1  
    16   18   14 1  
    17   14   33 1  
    18   16   15 ar 
    19   15   20 ar 
    20   15   21 1  
    21   17   16 ar 
    22   17   18 ar 
    23   18   19 ar 
    24   19   20 ar 
    25   21   22 2  
    26   21   23 am 
    27   23   24 1  
    28   24   25 1  
    29   24   30 1  
    30   25   26 1  
    31   26   27 1  
    32   27   28 ar 
    33   27   29 ar 
    34   30   31 ar 
    35   30   32 ar 
    36   33   34 ar 
    37   33   35 ar 
    38    3   36 1  
    39    3   37 1  
    40    4   38 1  
    41    8   39 1  
    42   10   40 1  
    43   11   41 1  
    44   13   42 1  
    45   13   43 1  
    46   14   44 1  
    47   16   45 1  
    48   17   46 1  
    49   19   47 1  
    50   20   48 1  
    51   23   49 1  
    52   24   50 1  
    53   25   51 1  
    54   25   52 1  
    55   26   53 1  
    56   26   54 1  
@<TRIPOS>SUBSTRUCTURE
     1 NHS         1

