### 
### Created by X-TOOL on Fri Sep 26 17:34:16 2014
### 

@<TRIPOS>MOLECULE
1c3e_ligand
   54    56     1     0     0
SMALL
GAST_HUCK


@<TRIPOS>ATOM
      1 N1         22.3420    1.3780   22.7850 N.2       1 NHR        -0.3092
      2 C2         23.3440    1.7360   22.0220 C.2       1 NHR         0.2302
      3 NA2        24.5300    1.0800   22.1240 N.pl3     1 NHR        -0.2808
      4 N3         23.2170    2.8230   21.0530 N.am      1 NHR        -0.1790
      5 C4         22.0500    3.5340   20.8930 C.2       1 NHR         0.2320
      6 O4         22.0170    4.4390   20.0610 O.2       1 NHR        -0.3870
      7 C4A        20.8520    3.1520   21.7670 C.ar      1 NHR         0.0499
      8 C8A        21.0480    2.0520   22.7090 C.ar      1 NHR        -0.0018
      9 C8         19.9770    1.6480   23.5320 C.ar      1 NHR        -0.0622
     10 C7         18.7440    2.3200   23.4570 C.ar      1 NHR        -0.0653
     11 C9         17.2450    4.1620   22.5490 C.3       1 NHR         0.0018
     12 C10        17.3890    5.7150   22.9720 C.3       1 NHR         0.0553
     13 CA1        16.2410    6.6090   22.5320 C.2       1 NHR         0.0520
     14 OA1        16.2870    6.9380   21.3410 O.co2     1 NHR        -0.5658
     15 C6         18.5610    3.4000   22.5570 C.ar      1 NHR        -0.0436
     16 C5         19.6130    3.8110   21.7110 C.ar      1 NHR        -0.0502
     17 C16        18.3750    5.0170   26.7230 C.ar      1 NHR        -0.0482
     18 C11        18.9380    6.2320   27.1740 C.ar      1 NHR         0.0430
     19 C17        19.5100    6.3100   28.6050 C.2       1 NHR         0.2017
     20 O17        20.1750    7.2940   28.9810 O.2       1 NHR        -0.3876
     21 C12        18.9910    7.3270   26.2420 C.ar      1 NHR        -0.0482
     22 C13        18.4800    7.1920   24.9160 C.ar      1 NHR        -0.0523
     23 C14        17.9220    5.9320   24.4800 C.ar      1 NHR        -0.0206
     24 C15        17.8670    4.8710   25.4280 C.ar      1 NHR        -0.0523
     25 N          19.2860    5.2610   29.4670 N.am      1 NHR        -0.2715
     26 CA         19.7220    5.0840   30.8870 C.3       1 NHR         0.0953
     27 C          18.9890    5.8600   32.0650 C.2       1 NHR         0.0601
     28 O          18.4910    5.2830   33.0680 O.co2     1 NHR        -0.5666
     29 CB         21.2750    5.2520   31.0000 C.3       1 NHR        -0.0064
     30 CG         22.1950    4.0120   31.3310 C.3       1 NHR         0.0038
     31 CD         21.4570    2.6750   31.3500 C.2       1 NHR         0.0350
     32 OE1        20.9130    2.1760   30.3660 O.co2     1 NHR        -0.5690
     33 OE2        21.5060    2.0640   32.5790 O.co2     1 NHR        -0.5690
     34 OT         18.9310    7.2150   31.9110 O.co2     1 NHR        -0.5666
     35 OA2        15.8190    7.4850   23.2710 O.co2     1 NHR        -0.5658
     36 H1         24.6369    0.3116   22.8015 H         1 NHR         0.1899
     37 H2         25.3219    1.3513   21.5238 H         1 NHR         0.1899
     38 H3         24.0065    3.0583   20.4861 H         1 NHR         0.2509
     39 H4         20.1037    0.8210   24.2212 H         1 NHR         0.0526
     40 H5         17.9243    2.0088   24.0944 H         1 NHR         0.0571
     41 H6         16.8239    4.1165   21.5338 H         1 NHR         0.0451
     42 H7         16.5566    3.6728   23.2538 H         1 NHR         0.0451
     43 H8         18.2282    6.0704   22.3560 H         1 NHR         0.0654
     44 H9         19.4653    4.6330   21.0199 H         1 NHR         0.0576
     45 H10        18.3356    4.1723   27.4013 H         1 NHR         0.0653
     46 H11        19.4262    8.2702   26.5520 H         1 NHR         0.0653
     47 H12        18.5105    8.0352   24.2354 H         1 NHR         0.0572
     48 H13        17.4203    3.9266   25.1389 H         1 NHR         0.0572
     49 H14        18.7526    4.5048   29.0879 H         1 NHR         0.1867
     50 H15        19.5151    4.0246   31.0989 H         1 NHR         0.0726
     51 H16        21.4545    5.9967   31.7894 H         1 NHR         0.0323
     52 H17        21.6196    5.6508   30.0345 H         1 NHR         0.0323
     53 H18        22.6464    4.1714   32.3214 H         1 NHR         0.0432
     54 H19        22.9883    3.9578   30.5709 H         1 NHR         0.0432
@<TRIPOS>BOND
     1    1    2 2  
     2    8    1 1  
     3    2    3 1  
     4    4    2 am 
     5    5    4 am 
     6    5    6 2  
     7    7    5 1  
     8    7    8 ar 
     9   16    7 ar 
    10    9    8 ar 
    11   10    9 ar 
    12   15   10 ar 
    13   12   11 1  
    14   11   15 1  
    15   12   13 1  
    16   23   12 1  
    17   13   14 ar 
    18   13   35 ar 
    19   15   16 ar 
    20   18   17 ar 
    21   17   24 ar 
    22   18   19 1  
    23   21   18 ar 
    24   19   20 2  
    25   19   25 am 
    26   22   21 ar 
    27   22   23 ar 
    28   23   24 ar 
    29   25   26 1  
    30   26   27 1  
    31   26   29 1  
    32   27   28 ar 
    33   27   34 ar 
    34   29   30 1  
    35   30   31 1  
    36   31   32 ar 
    37   31   33 ar 
    38    3   36 1  
    39    3   37 1  
    40    4   38 1  
    41    9   39 1  
    42   10   40 1  
    43   11   41 1  
    44   11   42 1  
    45   12   43 1  
    46   16   44 1  
    47   17   45 1  
    48   21   46 1  
    49   22   47 1  
    50   24   48 1  
    51   25   49 1  
    52   26   50 1  
    53   29   51 1  
    54   29   52 1  
    55   30   53 1  
    56   30   54 1  
@<TRIPOS>SUBSTRUCTURE
     1 NHR         1

