### 
### Created by X-TOOL on Mon Sep 10 21:12:47 2018
### 

@<TRIPOS>MOLECULE
1c3i_ligand
   64    65     1     0     0
SMALL
GAST_HUCK


@<TRIPOS>ATOM
      1 N          39.7760  -48.5280   -1.6220 N.4       1 TR1         0.2588
      2 CA         39.8700  -48.2370   -0.1400 C.3       1 TR1         0.0771
      3 C          41.3050  -48.4470    0.3440 C.2       1 TR1         0.2274
      4 O          41.7440  -47.8030    1.2830 O.2       1 TR1        -0.3907
      5 C41        40.9660  -47.7210   -7.9970 C.ar      1 TR1        -0.0221
      6 C42        41.5310  -46.6570   -8.7140 C.ar      1 TR1        -0.0557
      7 C43        40.7060  -48.9180   -8.6730 C.ar      1 TR1        -0.0557
      8 C44        41.7790  -46.7770  -10.0810 C.ar      1 TR1        -0.0622
      9 C45        40.9860  -49.0490  -10.0380 C.ar      1 TR1        -0.0622
     10 C46        41.5060  -47.9760  -10.7530 C.ar      1 TR1        -0.0627
     11 C47        40.1710  -47.3840   -3.8460 C.ar      1 TR1         0.0024
     12 C48        39.9240  -46.3090   -4.7170 C.ar      1 TR1        -0.0539
     13 C49        40.6740  -48.5660   -4.3860 C.ar      1 TR1        -0.0539
     14 C50        40.1890  -46.4320   -6.0730 C.ar      1 TR1        -0.0599
     15 C51        40.9430  -48.6970   -5.7580 C.ar      1 TR1        -0.0599
     16 C52        40.7010  -47.6190   -6.6220 C.ar      1 TR1        -0.0242
     17 CM2        39.8950  -47.2310   -2.3470 C.3       1 TR1         0.0027
     18 CB         38.9250  -49.2080    0.6270 C.3       1 TR1         0.0512
     19 SG         37.1920  -48.8670    0.1010 S.3       1 TR1        -0.1701
     20 N2         42.0510  -49.3850   -0.2660 N.am      1 TR1        -0.2637
     21 CA2        43.4210  -49.6680    0.1840 C.3       1 TR1         0.1202
     22 C2         44.3980  -49.1460   -0.8400 C.2       1 TR1         0.2008
     23 O2         44.1330  -49.2510   -2.0230 O.2       1 TR1        -0.3947
     24 N3         45.5470  -48.5840   -0.4180 N.am      1 TR1        -0.2623
     25 CA3        46.5110  -48.0380   -1.3650 C.3       1 TR1         0.1444
     26 CB3        47.5260  -47.1350   -0.5850 C.3       1 TR1        -0.0049
     27 CG1        48.5880  -47.9980    0.1600 C.3       1 TR1        -0.0583
     28 CG2        48.1860  -46.1350   -1.5810 C.3       1 TR1        -0.0583
     29 C3         47.1450  -49.1320   -2.1890 C.2       1 TR1         0.2596
     30 O3         47.2000  -50.2520   -1.7200 O.2       1 TR1        -0.3678
     31 OE         47.6460  -48.8800   -3.4130 O.3       1 TR1        -0.2784
     32 CM3        48.7310  -49.6910   -3.9050 C.3       1 TR1         0.0658
     33 H1         40.5230  -49.1457   -1.8986 H         1 TR1         0.2051
     34 H2         38.8890  -48.9584   -1.8317 H         1 TR1         0.2051
     35 H3         39.5669  -47.1969    0.0505 H         1 TR1         0.1107
     36 H4         41.7770  -45.7339   -8.2018 H         1 TR1         0.0615
     37 H5         40.2816  -49.7559   -8.1318 H         1 TR1         0.0615
     38 H6         42.1867  -45.9351  -10.6288 H         1 TR1         0.0615
     39 H7         40.7966  -49.9910  -10.5398 H         1 TR1         0.0615
     40 H8         41.6977  -48.0657  -11.8161 H         1 TR1         0.0610
     41 H9         39.5246  -45.3796   -4.3274 H         1 TR1         0.0562
     42 H10        40.8628  -49.4073   -3.7290 H         1 TR1         0.0562
     43 H11        39.9957  -45.5891   -6.7267 H         1 TR1         0.0609
     44 H12        41.3366  -49.6286   -6.1482 H         1 TR1         0.0609
     45 H13        40.7201  -46.6577   -1.8992 H         1 TR1         0.0983
     46 H14        38.9532  -46.6764   -2.2226 H         1 TR1         0.0983
     47 H15        39.0236  -49.0444    1.7103 H         1 TR1         0.0455
     48 H16        39.1880  -50.2490    0.3879 H         1 TR1         0.0455
     49 H17        36.9575  -47.9113    0.3199 H         1 TR1         0.1020
     50 H18        41.6686  -49.8964   -1.0356 H         1 TR1         0.1882
     51 H19        43.5536  -50.7539    0.2986 H         1 TR1         0.0763
     52 H20        43.6007  -49.1727    1.1496 H         1 TR1         0.0763
     53 H21        45.7420  -48.5406    0.5618 H         1 TR1         0.1885
     54 H22        45.9671  -47.3874   -2.0656 H         1 TR1         0.0819
     55 H23        46.9708  -46.5570    0.1684 H         1 TR1         0.0344
     56 H24        49.2851  -47.3382    0.6973 H         1 TR1         0.0235
     57 H25        49.1453  -48.6040   -0.5695 H         1 TR1         0.0235
     58 H26        48.0834  -48.6610    0.8782 H         1 TR1         0.0235
     59 H27        47.4033  -45.5478   -2.0837 H         1 TR1         0.0235
     60 H28        48.7646  -46.6932   -2.3317 H         1 TR1         0.0235
     61 H29        48.8559  -45.4579   -1.0309 H         1 TR1         0.0235
     62 H30        49.0151  -49.3515   -4.9120 H         1 TR1         0.0577
     63 H31        48.4119  -50.7428   -3.9492 H         1 TR1         0.0577
     64 H32        49.5941  -49.5977   -3.2295 H         1 TR1         0.0577
@<TRIPOS>BOND
     1    1   17 1  
     2    1    2 1  
     3    2   18 1  
     4    2    3 1  
     5    3   20 am 
     6    3    4 2  
     7   20   21 1  
     8   21   22 1  
     9   22   24 am 
    10   22   23 2  
    11   24   25 1  
    12   25   29 1  
    13   25   26 1  
    14   26   28 1  
    15   26   27 1  
    16   29   31 1  
    17   29   30 2  
    18   31   32 1  
    19   18   19 1  
    20   17   11 1  
    21   11   13 ar 
    22   11   12 ar 
    23   12   14 ar 
    24   14   16 ar 
    25   16   15 ar 
    26   16    5 1  
    27    5    7 ar 
    28    5    6 ar 
    29    6    8 ar 
    30    8   10 ar 
    31   10    9 ar 
    32    9    7 ar 
    33   15   13 ar 
    34    1   33 1  
    35    1   34 1  
    36    2   35 1  
    37    6   36 1  
    38    7   37 1  
    39    8   38 1  
    40    9   39 1  
    41   10   40 1  
    42   12   41 1  
    43   13   42 1  
    44   14   43 1  
    45   15   44 1  
    46   17   45 1  
    47   17   46 1  
    48   18   47 1  
    49   18   48 1  
    50   19   49 1  
    51   20   50 1  
    52   21   51 1  
    53   21   52 1  
    54   24   53 1  
    55   25   54 1  
    56   26   55 1  
    57   27   56 1  
    58   27   57 1  
    59   27   58 1  
    60   28   59 1  
    61   28   60 1  
    62   28   61 1  
    63   32   62 1  
    64   32   63 1  
    65   32   64 1  
@<TRIPOS>SUBSTRUCTURE
     1 TR1         1

