### 
### Created by X-TOOL on Mon Sep 10 21:12:47 2018
### 

@<TRIPOS>MOLECULE
1c3r_ligand
   44    44     1     0     0
SMALL
GAST_HUCK


@<TRIPOS>ATOM
      1 O1         47.6690    8.1890  109.4640 O.3       1 TSN        -0.2729
      2 O2         49.9520    6.9810  108.3400 O.2       1 TSN        -0.3988
      3 O3         52.4580    5.1010  101.6670 O.2       1 TSN        -0.3812
      4 N1         47.8000    7.7890  108.1310 N.am      1 TSN        -0.1684
      5 N2         53.0130   -1.3290  101.2590 N.pl3     1 TSN        -0.3118
      6 C1         51.8590    2.7990  101.6100 C.ar      1 TSN         0.0217
      7 C2         50.9070    1.7690  101.6660 C.ar      1 TSN        -0.0543
      8 C3         51.2410    0.4190  101.5510 C.ar      1 TSN        -0.0377
      9 C4         52.6260    0.0260  101.3660 C.ar      1 TSN         0.0456
     10 C5         53.5890    1.0800  101.3030 C.ar      1 TSN        -0.0377
     11 C6         53.2180    2.4080  101.4180 C.ar      1 TSN        -0.0543
     12 C7         51.5720    4.2610  101.7340 C.2       1 TSN         0.1385
     13 C8         50.1080    4.7260  101.9960 C.3       1 TSN         0.0582
     14 C9         50.0520    5.4210  103.3380 C.2       1 TSN        -0.0497
     15 C10        49.0600    5.3570  104.2790 C.2       1 TSN        -0.0439
     16 C11        49.3150    6.1550  105.5040 C.2       1 TSN        -0.0556
     17 C12        48.5150    6.1840  106.5950 C.2       1 TSN        -0.0023
     18 C13        48.8550    6.9940  107.7560 C.2       1 TSN         0.2026
     19 C14        49.6800    5.6930  100.8640 C.3       1 TSN        -0.0365
     20 C15        47.7760    4.5450  104.1320 C.3       1 TSN        -0.0375
     21 C17        54.4380   -1.7030  101.1390 C.3       1 TSN         0.0163
     22 C16        52.0440   -2.4160  101.3160 C.3       1 TSN         0.0163
     23 H1         47.5881    7.4211  110.0174 H         1 TSN         0.2489
     24 H2         47.1267    8.0812  107.4518 H         1 TSN         0.2198
     25 H3         49.8652    2.0343  101.8049 H         1 TSN         0.0638
     26 H4         50.4655   -0.3368  101.5999 H         1 TSN         0.0531
     27 H5         54.6350    0.8332  101.1618 H         1 TSN         0.0531
     28 H6         53.9825    3.1744  101.3605 H         1 TSN         0.0638
     29 H7         49.4366    3.8547  102.0064 H         1 TSN         0.0699
     30 H8         50.9059    6.0497  103.5862 H         1 TSN         0.0697
     31 H9         50.2167    6.7651  105.5267 H         1 TSN         0.0698
     32 H10        47.6014    5.5914  106.6047 H         1 TSN         0.0537
     33 H11        48.6469    6.0279  101.0390 H         1 TSN         0.0283
     34 H12        49.7380    5.1732   99.8963 H         1 TSN         0.0283
     35 H13        50.3511    6.5645  100.8529 H         1 TSN         0.0283
     36 H14        47.1567    4.6721  105.0322 H         1 TSN         0.0349
     37 H15        48.0271    3.4814  104.0069 H         1 TSN         0.0349
     38 H16        47.2188    4.8963  103.2511 H         1 TSN         0.0349
     39 H17        54.5251   -2.7972  101.0681 H         1 TSN         0.0480
     40 H18        54.9860   -1.3482  102.0243 H         1 TSN         0.0480
     41 H19        54.8633   -1.2420  100.2353 H         1 TSN         0.0480
     42 H20        51.0300   -1.9989  101.4042 H         1 TSN         0.0480
     43 H21        52.2563   -3.0512  102.1886 H         1 TSN         0.0480
     44 H22        52.1142   -3.0183  100.3983 H         1 TSN         0.0480
@<TRIPOS>BOND
     1    1    4 1  
     2    4   18 am 
     3   18    2 2  
     4   18   17 1  
     5   17   16 2  
     6   16   15 1  
     7   15   20 1  
     8   15   14 2  
     9   14   13 1  
    10   13   19 1  
    11   13   12 1  
    12   12    3 2  
    13   12    6 1  
    14    6   11 ar 
    15    6    7 ar 
    16    7    8 ar 
    17    8    9 ar 
    18    9   10 ar 
    19    9    5 1  
    20    5   22 1  
    21    5   21 1  
    22   10   11 ar 
    23    1   23 1  
    24    4   24 1  
    25    7   25 1  
    26    8   26 1  
    27   10   27 1  
    28   11   28 1  
    29   13   29 1  
    30   14   30 1  
    31   16   31 1  
    32   17   32 1  
    33   19   33 1  
    34   19   34 1  
    35   19   35 1  
    36   20   36 1  
    37   20   37 1  
    38   20   38 1  
    39   21   39 1  
    40   21   40 1  
    41   21   41 1  
    42   22   42 1  
    43   22   43 1  
    44   22   44 1  
@<TRIPOS>SUBSTRUCTURE
     1 TSN         1

