### 
### Created by X-TOOL on Mon Sep 10 21:12:47 2018
### 

@<TRIPOS>MOLECULE
1c3x_ligand
   16    17     1     0     0
SMALL
GAST_HUCK


@<TRIPOS>ATOM
      1 I          11.5710  -22.0780    0.2450 I         1 8IG         0.0078
      2 O6         12.8870  -17.6580   -4.0870 O.2       1 8IG        -0.4083
      3 C8         11.7540  -20.0820   -0.4660 C.2       1 8IG         0.1649
      4 N9         11.4030  -18.9810    0.2830 N.pl3     1 8IG        -0.2463
      5 N2         11.5660  -14.4200   -1.0230 N.pl3     1 8IG        -0.2803
      6 N1         12.2190  -16.0950   -2.5220 N.am      1 8IG        -0.1832
      7 C2         11.7280  -15.7480   -1.2290 C.2       1 8IG         0.2348
      8 N3         11.4390  -16.6470   -0.2180 N.2       1 8IG        -0.2750
      9 C4         11.6570  -17.9640   -0.5910 C.2       1 8IG         0.1139
     10 C5         12.1240  -18.4460   -1.7910 C.2       1 8IG         0.0977
     11 C6         12.4490  -17.4500   -2.8850 C.2       1 8IG         0.2155
     12 N7         12.1700  -19.8240   -1.7120 N.2       1 8IG        -0.3109
     13 H1         11.0439  -18.9367    1.2474 H         1 8IG         0.2379
     14 H2         11.2154  -14.0784   -0.1167 H         1 8IG         0.1899
     15 H3         11.7933  -13.7511   -1.7725 H         1 8IG         0.1899
     16 H4         12.4051  -15.3711   -3.1863 H         1 8IG         0.2517
@<TRIPOS>BOND
     1    3    1 1  
     2   11    2 2  
     3   11    6 am 
     4   10   11 1  
     5   10   12 1  
     6    9   10 2  
     7    9    8 1  
     8    4    9 1  
     9    4    3 1  
    10   12    3 2  
    11    8    7 2  
    12    7    6 am 
    13    7    5 1  
    14    4   13 1  
    15    5   14 1  
    16    5   15 1  
    17    6   16 1  
@<TRIPOS>SUBSTRUCTURE
     1 8IG         1

