### 
### Created by X-TOOL on Mon Sep 10 21:12:47 2018
### 

@<TRIPOS>MOLECULE
1c4u_ligand
   66    69     1     0     0
SMALL
GAST_HUCK


@<TRIPOS>ATOM
      1 C27        21.9140  -15.0870   25.5810 C.ar      1 IH1         0.0131
      2 C28        21.0480  -14.3190   26.2120 C.ar      1 IH1        -0.0503
      3 C29        19.8910  -14.9510   26.5140 C.ar      1 IH1        -0.0340
      4 C24        19.6460  -16.2650   26.1410 C.ar      1 IH1         0.0911
      5 C25        20.5030  -16.9760   25.4410 C.ar      1 IH1        -0.0340
      6 C26        21.6750  -16.3910   25.1330 C.ar      1 IH1        -0.0503
      7 S          18.1600  -17.1020   26.4320 S.o2      1 IH1         0.0003
      8 O1         17.2280  -16.0250   26.7360 O.2       1 IH1        -0.1689
      9 O2         18.4440  -17.9820   27.5840 O.2       1 IH1        -0.1689
     10 C23        17.6480  -17.9860   25.0220 C.3       1 IH1         0.0955
     11 C22        17.0590  -17.1230   23.8100 C.3       1 IH1         0.0796
     12 C13        18.4770  -13.0140   21.7470 C.3       1 IH1         0.1760
     13 C14        19.7290  -12.8770   21.1120 C.2       1 IH1        -0.0506
     14 C15        20.6890  -13.7440   20.8150 C.2       1 IH1        -0.0694
     15 C16        20.4550  -15.1580   21.2980 C.3       1 IH1         0.0780
     16 C19        19.0290  -16.4530   22.6890 C.2       1 IH1         0.3166
     17 C21        17.5700  -14.8640   23.0450 C.2       1 IH1         0.3189
     18 N17        19.2900  -15.2970   21.9610 N.am      1 IH1        -0.1349
     19 N18        18.5340  -14.2870   22.4350 N.am      1 IH1        -0.1153
     20 O21        16.5860  -14.3920   23.3750 O.2       1 IH1        -0.3902
     21 O19        19.7750  -17.4080   22.5830 O.2       1 IH1        -0.3903
     22 N20        17.8950  -16.2050   23.2180 N.am      1 IH1        -0.1517
     23 C12        17.1880  -12.6810   20.7050 C.2       1 IH1         0.2121
     24 O12        17.3750  -12.1980   19.5280 O.2       1 IH1        -0.3920
     25 C1         14.8760  -12.1880   20.4480 C.3       1 IH1         0.0339
     26 C2         13.6350  -12.0180   21.1120 C.3       1 IH1        -0.0208
     27 C3         13.1260  -10.6710   21.5830 C.3       1 IH1        -0.0484
     28 C4         11.9440  -10.7790   22.3690 C.3       1 IH1        -0.0472
     29 C5         12.2410  -11.6020   23.7210 C.3       1 IH1         0.0307
     30 C6         12.5930  -12.9820   23.0890 C.3       1 IH1        -0.0472
     31 N9         15.8230  -12.4690   20.9900 N.am      1 IH1        -0.2834
     32 C7         13.5510  -13.1730   22.1480 C.3       1 IH1        -0.0484
     33 C8         10.9750  -11.8100   24.2710 C.cat     1 IH1         0.2075
     34 N11        10.3730  -12.9340   24.2100 N.pl3     1 IH1        -0.2760
     35 N10        10.4990  -10.8270   24.9970 N.pl3     1 IH1        -0.2760
     36 BR         23.4420  -14.3210   25.1250 Br        1 IH1        -0.0498
     37 H1         21.2439  -13.2831   26.4640 H         1 IH1         0.0645
     38 H2         19.1291  -14.4128   27.0662 H         1 IH1         0.0643
     39 H3         20.2753  -17.9880   25.1263 H         1 IH1         0.0643
     40 H4         22.4197  -16.9197   24.5491 H         1 IH1         0.0645
     41 H5         16.8678  -18.6944   25.3373 H         1 IH1         0.0528
     42 H6         18.5177  -18.5430   24.6433 H         1 IH1         0.0528
     43 H7         16.1846  -16.5747   24.1905 H         1 IH1         0.0588
     44 H8         16.7383  -17.8281   23.0289 H         1 IH1         0.0588
     45 H9         18.4132  -12.2444   22.5304 H         1 IH1         0.0944
     46 H10        19.9524  -11.8566   20.8041 H         1 IH1         0.0494
     47 H11        21.5825  -13.4574   20.2623 H         1 IH1         0.0483
     48 H12        21.2781  -15.4404   21.9708 H         1 IH1         0.0671
     49 H13        20.4462  -15.8300   20.4272 H         1 IH1         0.0671
     50 H14        14.7128  -12.9719   19.6937 H         1 IH1         0.0523
     51 H15        15.0853  -11.2326   19.9446 H         1 IH1         0.0523
     52 H16        12.8949  -12.2757   20.3401 H         1 IH1         0.0320
     53 H17        12.9084  -10.0486   20.7025 H         1 IH1         0.0269
     54 H18        13.9089  -10.1899   22.1877 H         1 IH1         0.0269
     55 H19        11.1698  -11.3025   21.7889 H         1 IH1         0.0265
     56 H20        11.5886   -9.7711   22.6292 H         1 IH1         0.0265
     57 H21        12.9877  -11.1696   24.4032 H         1 IH1         0.0318
     58 H22        11.6587  -13.3482   22.6386 H         1 IH1         0.0265
     59 H23        12.8727  -13.6309   23.9320 H         1 IH1         0.0265
     60 H24        15.6416  -12.6102   21.9632 H         1 IH1         0.1852
     61 H25        14.5241  -13.2600   22.6534 H         1 IH1         0.0269
     62 H26        13.3316  -14.1078   21.6114 H         1 IH1         0.0269
     63 H27         9.4388  -13.0414   24.6304 H         1 IH1         0.3178
     64 H28        10.8214  -13.7336   23.7404 H         1 IH1         0.3178
     65 H29         9.5700  -10.9122   25.4336 H         1 IH1         0.3178
     66 H30        11.0542   -9.9698   25.1306 H         1 IH1         0.3178
@<TRIPOS>BOND
     1    1   36 1  
     2    1    6 ar 
     3    1    2 ar 
     4    2    3 ar 
     5    3    4 ar 
     6    4    7 1  
     7    4    5 ar 
     8    5    6 ar 
     9    7   10 1  
    10    7    9 2  
    11    7    8 2  
    12   10   11 1  
    13   11   22 1  
    14   22   16 am 
    15   22   17 am 
    16   17   19 am 
    17   17   20 2  
    18   19   18 1  
    19   19   12 1  
    20   12   23 1  
    21   12   13 1  
    22   13   14 2  
    23   14   15 1  
    24   18   15 1  
    25   18   16 am 
    26   16   21 2  
    27   23   31 am 
    28   23   24 2  
    29   31   25 1  
    30   25   26 1  
    31   26   32 1  
    32   26   27 1  
    33   27   28 1  
    34   28   29 1  
    35   29   33 1  
    36   29   30 1  
    37   30   32 1  
    38   33   35 ar 
    39   33   34 ar 
    40    2   37 1  
    41    3   38 1  
    42    5   39 1  
    43    6   40 1  
    44   10   41 1  
    45   10   42 1  
    46   11   43 1  
    47   11   44 1  
    48   12   45 1  
    49   13   46 1  
    50   14   47 1  
    51   15   48 1  
    52   15   49 1  
    53   25   50 1  
    54   25   51 1  
    55   26   52 1  
    56   27   53 1  
    57   27   54 1  
    58   28   55 1  
    59   28   56 1  
    60   29   57 1  
    61   30   58 1  
    62   30   59 1  
    63   31   60 1  
    64   32   61 1  
    65   32   62 1  
    66   34   63 1  
    67   34   64 1  
    68   35   65 1  
    69   35   66 1  
@<TRIPOS>SUBSTRUCTURE
     1 IH1         1

