### 
### Created by X-TOOL on Mon Sep 10 21:12:47 2018
### 

@<TRIPOS>MOLECULE
1c4y_ligand
   76    81     1     0     0
SMALL
GAST_HUCK


@<TRIPOS>ATOM
      1 C1         25.3450   48.5910   -4.8320 C.2       1 IH3         0.0409
      2 NC         24.5070   48.3160   -3.7520 N.pl3     1 IH3        -0.2449
      3 C3         23.4470   47.6070   -4.1920 C.2       1 IH3         0.1942
      4 NA         23.5970   47.4300   -5.5070 N.2       1 IH3        -0.3473
      5 C2         24.7420   48.0160   -5.9250 C.2       1 IH3        -0.0513
      6 NB         22.4400   47.1610   -3.4600 N.pl3     1 IH3        -0.3004
      7 N10        29.0620   50.8460   -4.2020 N.am      1 IH3        -0.2811
      8 C7         27.5850   51.6060   -5.7600 C.3       1 IH3        -0.0280
      9 C8         29.0090   50.9550   -5.4390 C.3       1 IH3         0.0424
     10 C9         28.9780   49.4540   -5.8540 C.3       1 IH3        -0.0280
     11 C4         27.6040   48.7000   -5.8170 C.3       1 IH3        -0.0383
     12 C5         26.5890   49.3250   -4.7690 C.3       1 IH3         0.0075
     13 C6         26.3500   50.7830   -5.0970 C.3       1 IH3        -0.0383
     14 N20        33.0760   49.0520   -2.2080 N.am      1 IH3        -0.1491
     15 C19        33.7510   50.2190   -1.8620 C.2       1 IH3         0.3170
     16 O19        35.0050   50.3120   -1.7280 O.2       1 IH3        -0.3902
     17 N17        32.7570   51.1700   -1.6100 N.am      1 IH3        -0.1334
     18 N18        31.4860   50.5670   -1.8930 N.am      1 IH3        -0.1190
     19 C21        31.7170   49.2640   -2.3030 C.2       1 IH3         0.3187
     20 O21        30.8530   48.4160   -2.5980 O.2       1 IH3        -0.3902
     21 C16        32.9110   52.5160   -1.2580 C.3       1 IH3         0.0855
     22 C14        31.5550   53.2470   -1.2270 C.2       1 IH3        -0.0549
     23 C13        30.3570   52.6450   -1.4960 C.2       1 IH3        -0.0610
     24 C12        30.3380   51.2930   -2.2310 C.3       1 IH3         0.1660
     25 C15        31.5190   54.7610   -0.8680 C.3       1 IH3        -0.0377
     26 C11        30.1040   51.4940   -3.6530 C.2       1 IH3         0.2082
     27 O11        30.9070   52.1590   -4.3140 O.2       1 IH3        -0.3929
     28 C23        33.4090   46.5440   -1.6680 C.3       1 IH3         0.0499
     29 C22        33.8590   47.5820   -2.6430 C.3       1 IH3         0.0813
     30 C24        33.6170   47.0110   -0.2250 C.ar      1 IH3        -0.0266
     31 C25        32.4690   46.9980    0.6330 C.ar      1 IH3        -0.0580
     32 C26        32.5910   47.4670    2.0170 C.ar      1 IH3        -0.0682
     33 C27        33.8630   47.9730    2.5970 C.ar      1 IH3        -0.0685
     34 C28        35.0480   48.0040    1.7420 C.ar      1 IH3        -0.0682
     35 C29        34.9260   47.5260    0.3400 C.ar      1 IH3        -0.0580
     36 C30        34.0780   45.2040   -2.0160 C.ar      1 IH3        -0.0266
     37 C31        33.2280   44.1030   -2.4440 C.ar      1 IH3        -0.0580
     38 C32        33.9040   42.6890   -2.7660 C.ar      1 IH3        -0.0682
     39 C33        35.3280   42.4150   -2.6510 C.ar      1 IH3        -0.0685
     40 C34        36.1700   43.5070   -2.2520 C.ar      1 IH3        -0.0682
     41 C35        35.5900   44.8660   -1.9270 C.ar      1 IH3        -0.0580
     42 H1         24.6706   48.6067   -2.7775 H         1 IH3         0.2341
     43 H2         25.1193   48.0298   -6.9465 H         1 IH3         0.0251
     44 H3         21.6787   46.6267   -3.9025 H         1 IH3         0.1788
     45 H4         22.4170   47.3479   -2.4474 H         1 IH3         0.1788
     46 H5         28.3949   50.3271   -3.6675 H         1 IH3         0.1855
     47 H6         27.4468   51.6278   -6.8511 H         1 IH3         0.0289
     48 H7         27.5724   52.6338   -5.3682 H         1 IH3         0.0289
     49 H8         29.8429   51.5199   -5.8812 H         1 IH3         0.0556
     50 H9         29.6626   48.9162   -5.1817 H         1 IH3         0.0289
     51 H10        29.3547   49.3937   -6.8857 H         1 IH3         0.0289
     52 H11        27.7864   47.6495   -5.5464 H         1 IH3         0.0289
     53 H12        27.1498   48.7473   -6.8177 H         1 IH3         0.0289
     54 H13        27.0106   49.2453   -3.7561 H         1 IH3         0.0456
     55 H14        25.5053   50.8301   -5.8000 H         1 IH3         0.0289
     56 H15        26.0770   51.2925   -4.1611 H         1 IH3         0.0289
     57 H16        33.5651   53.0060   -1.9942 H         1 IH3         0.0694
     58 H17        33.3723   52.5749   -0.2611 H         1 IH3         0.0694
     59 H18        29.4243   53.1183   -1.1927 H         1 IH3         0.0286
     60 H19        29.4798   50.7179   -1.8533 H         1 IH3         0.0894
     61 H20        30.4792   55.1190   -0.8928 H         1 IH3         0.0378
     62 H21        32.1185   55.3252   -1.5975 H         1 IH3         0.0378
     63 H22        31.9337   54.9088    0.1400 H         1 IH3         0.0378
     64 H23        32.3257   46.4069   -1.8008 H         1 IH3         0.0642
     65 H24        34.9507   47.7045   -2.5877 H         1 IH3         0.0620
     66 H25        33.5741   47.2898   -3.6645 H         1 IH3         0.0620
     67 H26        31.5149   46.6431    0.2605 H         1 IH3         0.0561
     68 H27        31.7102   47.4436    2.6484 H         1 IH3         0.0600
     69 H28        33.9103   48.3099    3.6263 H         1 IH3         0.0561
     70 H29        35.9956   48.3679    2.1223 H         1 IH3         0.0600
     71 H30        35.8013   47.5463   -0.2991 H         1 IH3         0.0561
     72 H31        32.1570   44.2383   -2.5428 H         1 IH3         0.0561
     73 H32        33.2580   41.8816   -3.0914 H         1 IH3         0.0600
     74 H33        35.7346   41.4315   -2.8571 H         1 IH3         0.0561
     75 H34        37.2410   43.3551   -2.1823 H         1 IH3         0.0600
     76 H35        36.2704   45.6495   -1.6136 H         1 IH3         0.0561
@<TRIPOS>BOND
     1    1    2 1  
     2    1    5 2  
     3   12    1 1  
     4    2    3 1  
     5    4    3 2  
     6    3    6 1  
     7    5    4 1  
     8    7    9 1  
     9   26    7 am 
    10    9    8 1  
    11    8   13 1  
    12    9   10 1  
    13   10   11 1  
    14   11   12 1  
    15   13   12 1  
    16   14   15 am 
    17   19   14 am 
    18   14   29 1  
    19   15   16 2  
    20   17   15 am 
    21   18   17 1  
    22   17   21 1  
    23   18   19 am 
    24   24   18 1  
    25   19   20 2  
    26   22   21 1  
    27   23   22 2  
    28   22   25 1  
    29   24   23 1  
    30   24   26 1  
    31   26   27 2  
    32   29   28 1  
    33   28   30 1  
    34   28   36 1  
    35   30   31 ar 
    36   30   35 ar 
    37   31   32 ar 
    38   32   33 ar 
    39   33   34 ar 
    40   34   35 ar 
    41   36   37 ar 
    42   36   41 ar 
    43   37   38 ar 
    44   38   39 ar 
    45   39   40 ar 
    46   40   41 ar 
    47    2   42 1  
    48    5   43 1  
    49    6   44 1  
    50    6   45 1  
    51    7   46 1  
    52    8   47 1  
    53    8   48 1  
    54    9   49 1  
    55   10   50 1  
    56   10   51 1  
    57   11   52 1  
    58   11   53 1  
    59   12   54 1  
    60   13   55 1  
    61   13   56 1  
    62   21   57 1  
    63   21   58 1  
    64   23   59 1  
    65   24   60 1  
    66   25   61 1  
    67   25   62 1  
    68   25   63 1  
    69   28   64 1  
    70   29   65 1  
    71   29   66 1  
    72   31   67 1  
    73   32   68 1  
    74   33   69 1  
    75   34   70 1  
    76   35   71 1  
    77   37   72 1  
    78   38   73 1  
    79   39   74 1  
    80   40   75 1  
    81   41   76 1  
@<TRIPOS>SUBSTRUCTURE
     1 IH3         1

