### 
### Created by X-TOOL on Mon Sep 10 21:12:47 2018
### 

@<TRIPOS>MOLECULE
1c50_ligand
   54    57     1     0     0
SMALL
GAST_HUCK


@<TRIPOS>ATOM
      1 CL1        17.4960    7.6850   49.6050 Cl        1 CHI        -0.0811
      2 C1         17.9620    8.9860   50.5590 C.ar      1 CHI         0.0253
      3 C2         18.5840   10.0270   49.9050 C.ar      1 CHI        -0.0600
      4 C3         18.9960   11.2080   50.6350 C.ar      1 CHI        -0.0398
      5 C4         18.7160   11.1570   52.0920 C.ar      1 CHI         0.0680
      6 N1         18.9970   12.1260   52.9520 N.pl3     1 CHI        -0.2669
      7 C5         18.1100   10.1130   52.6960 C.ar      1 CHI        -0.0169
      8 C6         17.6680    8.9620   51.9940 C.ar      1 CHI        -0.0571
      9 C7         18.0150   10.4300   54.1040 C.2       1 CHI        -0.0391
     10 C8         18.6590   11.7930   54.1700 C.2       1 CHI         0.1323
     11 C9         18.8490   12.5480   55.4360 C.2       1 CHI         0.2292
     12 O1         19.3550   13.6320   55.2530 O.2       1 CHI        -0.3839
     13 N2         18.4780   12.0820   56.6830 N.am      1 CHI        -0.2620
     14 C10        18.7420   12.9100   57.9080 C.3       1 CHI         0.1394
     15 C11        20.2620   13.0890   58.1330 C.2       1 CHI         0.2060
     16 O2         21.0010   11.9680   58.3170 O.2       1 CHI        -0.3942
     17 N3         20.8900   14.2860   58.1740 N.am      1 CHI        -0.2710
     18 C12        19.9240   15.3970   58.4740 C.3       1 CHI         0.0363
     19 C13        20.6690   16.7520   58.5520 C.3       1 CHI        -0.0063
     20 C14        21.7850   16.6900   59.6430 C.3       1 CHI         0.0589
     21 O3         22.5080   17.9300   59.7510 O.3       1 CHI        -0.3917
     22 C15        22.7750   15.5550   59.3100 C.3       1 CHI        -0.0063
     23 C16        22.0160   14.1970   59.1750 C.3       1 CHI         0.0363
     24 C17        18.1550   12.2170   59.2290 C.3       1 CHI         0.0195
     25 C18        18.3930   13.0720   60.5040 C.ar      1 CHI        -0.0424
     26 C19        17.5860   14.1970   60.8740 C.ar      1 CHI        -0.0618
     27 C20        17.8870   14.9170   62.0450 C.ar      1 CHI        -0.0349
     28 C21        19.0100   14.5190   62.8470 C.ar      1 CHI         0.1248
     29 F1         19.3280   15.1940   63.9460 F         1 CHI        -0.1893
     30 C22        19.8010   13.4020   62.4760 C.ar      1 CHI        -0.0349
     31 C23        19.4950   12.7040   61.3270 C.ar      1 CHI        -0.0618
     32 H1         18.7660    9.9617   48.8384 H         1 CHI         0.0556
     33 H2         19.4693   12.0582   50.1574 H         1 CHI         0.0550
     34 H3         19.4265   13.0258   52.6936 H         1 CHI         0.2262
     35 H4         17.1574    8.1369   52.4772 H         1 CHI         0.0564
     36 H5         17.5877    9.8364   54.9108 H         1 CHI         0.0400
     37 H6         18.0325   11.1910   56.7700 H         1 CHI         0.1875
     38 H7         18.2715   13.8951   57.7733 H         1 CHI         0.0822
     39 H8         19.4306   15.1985   59.4369 H         1 CHI         0.0523
     40 H9         19.1672   15.4446   57.6771 H         1 CHI         0.0523
     41 H10        19.9529   17.5464   58.8091 H         1 CHI         0.0310
     42 H11        21.1264   16.9723   57.5761 H         1 CHI         0.0310
     43 H12        21.3106   16.4776   60.6124 H         1 CHI         0.0594
     44 H13        22.9192   18.1291   58.9180 H         1 CHI         0.2098
     45 H14        23.5204   15.4757   60.1150 H         1 CHI         0.0310
     46 H15        23.2827   15.7829   58.3612 H         1 CHI         0.0310
     47 H16        22.7252   13.4230   58.8464 H         1 CHI         0.0523
     48 H17        21.6008   13.9214   60.1556 H         1 CHI         0.0523
     49 H18        18.6439   11.2407   59.3624 H         1 CHI         0.0466
     50 H19        17.0726   12.0704   59.0994 H         1 CHI         0.0466
     51 H20        16.7470   14.4922   60.2543 H         1 CHI         0.0547
     52 H21        17.2773   15.7637   62.3388 H         1 CHI         0.0587
     53 H22        20.6404   13.0990   63.0914 H         1 CHI         0.0587
     54 H23        20.1075   11.8556   61.0438 H         1 CHI         0.0547
@<TRIPOS>BOND
     1    1    2 1  
     2    2    3 ar 
     3    2    8 ar 
     4    3    4 ar 
     5    4    5 ar 
     6    5    6 1  
     7    5    7 ar 
     8    6   10 1  
     9    7    8 ar 
    10    7    9 1  
    11    9   10 2  
    12   10   11 1  
    13   11   12 2  
    14   11   13 am 
    15   13   14 1  
    16   14   15 1  
    17   14   24 1  
    18   15   16 2  
    19   15   17 am 
    20   17   18 1  
    21   17   23 1  
    22   18   19 1  
    23   19   20 1  
    24   20   21 1  
    25   20   22 1  
    26   22   23 1  
    27   24   25 1  
    28   25   26 ar 
    29   25   31 ar 
    30   26   27 ar 
    31   27   28 ar 
    32   28   29 1  
    33   28   30 ar 
    34   30   31 ar 
    35    3   32 1  
    36    4   33 1  
    37    6   34 1  
    38    8   35 1  
    39    9   36 1  
    40   13   37 1  
    41   14   38 1  
    42   18   39 1  
    43   18   40 1  
    44   19   41 1  
    45   19   42 1  
    46   20   43 1  
    47   21   44 1  
    48   22   45 1  
    49   22   46 1  
    50   23   47 1  
    51   23   48 1  
    52   24   49 1  
    53   24   50 1  
    54   26   51 1  
    55   27   52 1  
    56   30   53 1  
    57   31   54 1  
@<TRIPOS>SUBSTRUCTURE
     1 CHI         1

