### 
### Created by X-TOOL on Mon Sep 10 21:12:47 2018
### 

@<TRIPOS>MOLECULE
1c5c_ligand
   31    32     1     0     0
SMALL
GAST_HUCK


@<TRIPOS>ATOM
      1 C1         20.2450   15.1870  158.0290 C.ar      1 TK4         0.0736
      2 C2         20.6260   15.3070  159.3580 C.ar      1 TK4         0.0891
      3 C3         21.9260   15.8510  159.6800 C.ar      1 TK4        -0.0318
      4 C4         22.7730   16.2440  158.6590 C.ar      1 TK4        -0.0568
      5 C5         23.2240   16.5140  156.1820 C.ar      1 TK4         0.0529
      6 C6         22.8280   16.3870  154.8610 C.ar      1 TK4        -0.0446
      7 C7         21.5430   15.8490  154.5560 C.ar      1 TK4        -0.0653
      8 C8         20.6860   15.4520  155.5710 C.ar      1 TK4        -0.0607
      9 C9         21.1110   15.5890  156.9510 C.ar      1 TK4        -0.0110
     10 C10        22.3850   16.1220  157.2830 C.ar      1 TK4        -0.0040
     11 S1         18.6070   14.5040  157.5330 S.o2      1 TK4        -0.1709
     12 O11        17.8370   14.2390  158.8350 O.co2     1 TK4        -0.4829
     13 O12        17.8300   15.4390  156.7020 O.co2     1 TK4        -0.4829
     14 O13        18.9410   13.1800  156.9470 O.co2     1 TK4        -0.4829
     15 N2         19.7160   14.8860  160.4130 N.am      1 TK4        -0.2315
     16 C21        20.1450   14.4100  161.6830 C.2       1 TK4         0.2014
     17 O2         21.3250   14.4200  162.0140 O.2       1 TK4        -0.3847
     18 C22        19.0790   13.8670  162.6070 C.3       1 TK4         0.0318
     19 S5         24.8620   17.1990  156.5780 S.o2      1 TK4        -0.1635
     20 O51        25.5410   17.4740  155.2690 O.co2     1 TK4        -0.4797
     21 O52        24.7390   18.4600  157.3680 O.co2     1 TK4        -0.4797
     22 O53        25.5630   16.1140  157.3150 O.co2     1 TK4        -0.4797
     23 H1         22.2351   15.9503  160.7142 H         1 TK4         0.0570
     24 H2         23.7474   16.6515  158.9030 H         1 TK4         0.0615
     25 H3         23.4923   16.6954  154.0619 H         1 TK4         0.0590
     26 H4         21.2337   15.7496  153.5218 H         1 TK4         0.0603
     27 H5         19.7096   15.0439  155.3359 H         1 TK4         0.0577
     28 H6         18.7332   14.9341  160.2349 H         1 TK4         0.2268
     29 H7         19.5432   13.5354  163.5475 H         1 TK4         0.0472
     30 H8         18.5761   13.0151  162.1261 H         1 TK4         0.0472
     31 H9         18.3420   14.6553  162.8199 H         1 TK4         0.0472
@<TRIPOS>BOND
     1    1   11 1  
     2    1    9 ar 
     3    1    2 ar 
     4    2   15 1  
     5    2    3 ar 
     6    3    4 ar 
     7    4   10 ar 
     8   10    9 ar 
     9   10    5 ar 
    10    5   19 1  
    11    5    6 ar 
    12    6    7 ar 
    13    7    8 ar 
    14    8    9 ar 
    15   19   22 ar 
    16   19   21 ar 
    17   19   20 ar 
    18   15   16 am 
    19   16   18 1  
    20   16   17 2  
    21   11   14 ar 
    22   11   13 ar 
    23   11   12 ar 
    24    3   23 1  
    25    4   24 1  
    26    6   25 1  
    27    7   26 1  
    28    8   27 1  
    29   15   28 1  
    30   18   29 1  
    31   18   30 1  
    32   18   31 1  
@<TRIPOS>SUBSTRUCTURE
     1 TK4         1

