### 
### Created by X-TOOL on Mon Sep 10 21:12:47 2018
### 

@<TRIPOS>MOLECULE
1c5n_ligand
   21    22     1     0     0
SMALL
GAST_HUCK


@<TRIPOS>ATOM
      1 C0         10.8040  -12.0750   24.5260 C.cat     1 ESI         0.2505
      2 C1         11.6090  -12.2200   23.4780 C.2       1 ESI         0.0861
      3 N1         10.1720  -13.1280   24.9620 N.pl3     1 ESI        -0.2704
      4 N2         10.7500  -10.8640   25.0200 N.pl3     1 ESI        -0.2704
      5 S2         12.4820  -10.7990   22.8680 S.3       1 ESI        -0.0309
      6 C3         13.2420  -11.7990   21.6210 C.ar      1 ESI         0.0403
      7 C4         12.8000  -13.1180   21.7330 C.ar      1 ESI        -0.0155
      8 C5         11.9090  -13.3260   22.7520 C.2       1 ESI        -0.0536
      9 C6         14.1420  -11.3940   20.6610 C.ar      1 ESI        -0.0472
     10 C7         14.6270  -12.3380   19.7670 C.ar      1 ESI        -0.0674
     11 C8         14.2030  -13.6740   19.8480 C.ar      1 ESI        -0.0610
     12 C9         13.2780  -14.0870   20.8320 C.ar      1 ESI         0.0037
     13 I9         12.5840  -16.0470   20.9790 I         1 ESI        -0.0547
     14 H1         10.2938  -14.0345   24.4885 H         1 ESI         0.3182
     15 H2          9.5507  -13.0537   25.7801 H         1 ESI         0.3182
     16 H3         11.2978  -10.1065   24.5876 H         1 ESI         0.3182
     17 H4         10.1597  -10.6686   25.8411 H         1 ESI         0.3182
     18 H5         11.4754  -14.3024   22.9629 H         1 ESI         0.0425
     19 H6         14.4646  -10.3606   20.6048 H         1 ESI         0.0593
     20 H7         15.3365  -12.0426   19.0026 H         1 ESI         0.0573
     21 H8         14.5920  -14.4004   19.1437 H         1 ESI         0.0587
@<TRIPOS>BOND
     1   12   13 1  
     2    1    4 ar 
     3    1    3 ar 
     4    2    1 1  
     5    2    8 2  
     6    5    2 1  
     7    6    5 1  
     8    6    9 ar 
     9    7    6 ar 
    10   12    7 ar 
    11    7    8 1  
    12   12   11 ar 
    13   11   10 ar 
    14   10    9 ar 
    15    3   14 1  
    16    3   15 1  
    17    4   16 1  
    18    4   17 1  
    19    8   18 1  
    20    9   19 1  
    21   10   20 1  
    22   11   21 1  
@<TRIPOS>SUBSTRUCTURE
     1 ESI         1

