### 
### Created by X-TOOL on Mon Sep 10 21:12:47 2018
### 

@<TRIPOS>MOLECULE
1c5o_ligand
   18    18     1     0     0
SMALL
GAST_HUCK


@<TRIPOS>ATOM
      1 C1         11.8270  -11.7370   23.1510 C.ar      1 BAM         0.0260
      2 C2         12.2520  -12.9160   22.5400 C.ar      1 BAM        -0.0565
      3 C3         13.1770  -12.8950   21.5060 C.ar      1 BAM        -0.0618
      4 C4         13.7030  -11.6970   21.0520 C.ar      1 BAM        -0.0618
      5 C5         13.3090  -10.5250   21.6260 C.ar      1 BAM        -0.0618
      6 C6         12.3830  -10.5490   22.6610 C.ar      1 BAM        -0.0565
      7 C          10.9010  -11.7410   24.2070 C.cat     1 BAM         0.2356
      8 N1         10.3210  -12.8610   24.5160 N.pl3     1 BAM        -0.2721
      9 N2         10.6290  -10.6390   24.8750 N.pl3     1 BAM        -0.2721
     10 H1         11.8529  -13.8653   22.8786 H         1 BAM         0.0617
     11 H2         13.4913  -13.8262   21.0487 H         1 BAM         0.0618
     12 H3         14.4251  -11.6913   20.2435 H         1 BAM         0.0618
     13 H4         13.7150   -9.5822   21.2776 H         1 BAM         0.0618
     14 H5         12.0783   -9.6095   23.1077 H         1 BAM         0.0617
     15 H6          9.6379  -12.8918   25.2862 H         1 BAM         0.3181
     16 H7         10.5441  -13.7185   23.9908 H         1 BAM         0.3181
     17 H8         11.0943   -9.7555   24.6223 H         1 BAM         0.3181
     18 H9          9.9510  -10.6607   25.6501 H         1 BAM         0.3181
@<TRIPOS>BOND
     1    7    1 1  
     2    1    6 ar 
     3    1    2 ar 
     4    2    3 ar 
     5    3    4 ar 
     6    4    5 ar 
     7    6    5 ar 
     8    7    9 ar 
     9    7    8 ar 
    10    2   10 1  
    11    3   11 1  
    12    4   12 1  
    13    5   13 1  
    14    6   14 1  
    15    8   15 1  
    16    8   16 1  
    17    9   17 1  
    18    9   18 1  
@<TRIPOS>SUBSTRUCTURE
     1 BAM         1

