### 
### Created by X-TOOL on Mon Sep 10 21:12:47 2018
### 

@<TRIPOS>MOLECULE
1c5p_ligand
   18    18     1     0     0
SMALL
GAST_HUCK


@<TRIPOS>ATOM
      1 C1         45.5430   19.2870   52.9170 C.ar      1 BAM         0.0260
      2 C2         45.6420   20.6680   53.1640 C.ar      1 BAM        -0.0565
      3 C3         45.2920   21.6160   52.2010 C.ar      1 BAM        -0.0618
      4 C4         44.8250   21.1990   50.9620 C.ar      1 BAM        -0.0618
      5 C5         44.7100   19.8370   50.6840 C.ar      1 BAM        -0.0618
      6 C6         45.0610   18.8980   51.6450 C.ar      1 BAM        -0.0565
      7 C          45.9020   18.3560   53.8920 C.cat     1 BAM         0.2356
      8 N1         46.7420   18.6980   54.8210 N.pl3     1 BAM        -0.2721
      9 N2         45.4030   17.1580   53.8400 N.pl3     1 BAM        -0.2721
     10 H1         46.0003   21.0059   54.1297 H         1 BAM         0.0617
     11 H2         45.3845   22.6737   52.4198 H         1 BAM         0.0618
     12 H3         44.5500   21.9311   50.2113 H         1 BAM         0.0618
     13 H4         44.3461   19.5110   49.7163 H         1 BAM         0.0618
     14 H5         44.9635   17.8431   51.4154 H         1 BAM         0.0617
     15 H6         47.0136   18.0181   55.5455 H         1 BAM         0.3181
     16 H7         47.1368   19.6492   54.8335 H         1 BAM         0.3181
     17 H8         44.7381   16.9090   53.0938 H         1 BAM         0.3181
     18 H9         45.6721   16.4570   54.5450 H         1 BAM         0.3181
@<TRIPOS>BOND
     1    7    1 1  
     2    1    6 ar 
     3    1    2 ar 
     4    2    3 ar 
     5    3    4 ar 
     6    4    5 ar 
     7    6    5 ar 
     8    7    9 ar 
     9    7    8 ar 
    10    2   10 1  
    11    3   11 1  
    12    4   12 1  
    13    5   13 1  
    14    6   14 1  
    15    8   15 1  
    16    8   16 1  
    17    9   17 1  
    18    9   18 1  
@<TRIPOS>SUBSTRUCTURE
     1 BAM         1

