### 
### Created by X-TOOL on Mon Sep 10 21:12:47 2018
### 

@<TRIPOS>MOLECULE
1c5s_ligand
   21    22     1     0     0
SMALL
GAST_HUCK


@<TRIPOS>ATOM
      1 C0         46.0670   18.1780   54.2560 C.cat     1 ESX         0.2497
      2 C1         45.8750   19.2150   53.3870 C.2       1 ESX         0.0847
      3 N1         46.5760   18.4090   55.4250 N.pl3     1 ESX        -0.2706
      4 N2         45.7310   17.0050   53.8170 N.pl3     1 ESX        -0.2706
      5 S2         45.0680   18.9640   51.7180 S.3       1 ESX        -0.0326
      6 C3         45.2060   20.6700   51.2840 C.ar      1 ESX         0.0376
      7 C4         45.8110   21.3380   52.3400 C.ar      1 ESX        -0.0254
      8 C5         46.1700   20.5660   53.4500 C.2       1 ESX        -0.0553
      9 C6         44.8030   21.3060   50.1230 C.ar      1 ESX        -0.0499
     10 C7         45.0050   22.6670   49.9900 C.ar      1 ESX        -0.0705
     11 C8         45.6130   23.3700   51.0240 C.ar      1 ESX        -0.0718
     12 C9         46.0110   22.7070   52.1910 C.ar      1 ESX        -0.0666
     13 H1         46.8171   19.3717   55.7006 H         1 ESX         0.3182
     14 H2         46.7395   17.6299   56.0786 H         1 ESX         0.3182
     15 H3         45.3314   16.9034   52.8731 H         1 ESX         0.3182
     16 H4         45.8638   16.1749   54.4122 H         1 ESX         0.3182
     17 H5         46.6568   21.0055   54.3194 H         1 ESX         0.0423
     18 H6         44.3332   20.7422   49.3252 H         1 ESX         0.0570
     19 H7         44.6924   23.1812   49.0883 H         1 ESX         0.0566
     20 H8         45.7797   24.4366   50.9261 H         1 ESX         0.0556
     21 H9         46.4818   23.2682   52.9901 H         1 ESX         0.0570
@<TRIPOS>BOND
     1    1    4 ar 
     2    1    3 ar 
     3    1    2 1  
     4    2    8 2  
     5    2    5 1  
     6    5    6 1  
     7    6    9 ar 
     8    6    7 ar 
     9    7   12 ar 
    10    7    8 1  
    11   12   11 ar 
    12   11   10 ar 
    13   10    9 ar 
    14    3   13 1  
    15    3   14 1  
    16    4   15 1  
    17    4   16 1  
    18    8   17 1  
    19    9   18 1  
    20   10   19 1  
    21   11   20 1  
    22   12   21 1  
@<TRIPOS>SUBSTRUCTURE
     1 ESX         1

