### 
### Created by X-TOOL on Mon Sep 10 21:12:47 2018
### 

@<TRIPOS>MOLECULE
1c5t_ligand
   20    21     1     0     0
SMALL
GAST_HUCK


@<TRIPOS>ATOM
      1 C0         46.0350   18.3120   54.2970 C.cat     1 ESP         0.2518
      2 C1         45.6910   19.3400   53.4410 C.2       1 ESP         0.0906
      3 N1         46.7870   18.6030   55.3100 N.pl3     1 ESP        -0.2702
      4 N2         45.5950   17.1170   54.0300 N.pl3     1 ESP        -0.2702
      5 S2         44.8720   18.9810   51.8860 S.3       1 ESP        -0.0116
      6 C3         44.7830   20.6750   51.4060 C.ar      1 ESP         0.1073
      7 C4         45.3740   21.3960   52.4370 C.ar      1 ESP         0.0013
      8 C5         45.8550   20.7030   53.5260 C.2       1 ESP        -0.0474
      9 N6         44.2810   21.1930   50.3030 N.ar      1 ESP        -0.2884
     10 C7         44.3460   22.5100   50.1950 C.ar      1 ESP         0.0008
     11 C8         44.9170   23.3330   51.1690 C.ar      1 ESP        -0.0442
     12 C9         45.4390   22.7660   52.3180 C.ar      1 ESP        -0.0477
     13 H1         47.0979   19.5736   55.4586 H         1 ESP         0.3182
     14 H2         47.0743   17.8639   55.9673 H         1 ESP         0.3182
     15 H3         44.9995   16.9600   53.2044 H         1 ESP         0.3182
     16 H4         45.8422   16.3280   54.6442 H         1 ESP         0.3182
     17 H5         46.3238   21.1913   54.3791 H         1 ESP         0.0436
     18 H6         43.9354   22.9741   49.3056 H         1 ESP         0.0776
     19 H7         44.9508   24.4070   51.0256 H         1 ESP         0.0642
     20 H8         45.8825   23.3776   53.0954 H         1 ESP         0.0695
@<TRIPOS>BOND
     1    1    4 ar 
     2    1    3 ar 
     3    1    2 1  
     4    2    8 2  
     5    2    5 1  
     6    5    6 1  
     7    6    9 ar 
     8    6    7 ar 
     9    7   12 ar 
    10    7    8 1  
    11   12   11 ar 
    12   11   10 ar 
    13   10    9 ar 
    14    3   13 1  
    15    3   14 1  
    16    4   15 1  
    17    4   16 1  
    18    8   17 1  
    19   10   18 1  
    20   11   19 1  
    21   12   20 1  
@<TRIPOS>SUBSTRUCTURE
     1 ESP         1

