### 
### Created by X-TOOL on Mon Sep 10 21:12:47 2018
### 

@<TRIPOS>MOLECULE
1c5x_ligand
   21    22     1     0     0
SMALL
GAST_HUCK


@<TRIPOS>ATOM
      1 C0          7.9510   -0.9830   25.9110 C.cat     1 ESI         0.2505
      2 C1          8.2930    0.2880   25.5050 C.2       1 ESI         0.0861
      3 N1          7.3070   -1.1620   27.0290 N.pl3     1 ESI        -0.2704
      4 N2          8.3420   -1.9500   25.1290 N.pl3     1 ESI        -0.2704
      5 S2          9.0260    0.6610   23.8540 S.3       1 ESI        -0.0309
      6 C3          9.1720    2.3800   24.1510 C.ar      1 ESI         0.0403
      7 C4          8.6640    2.6270   25.4550 C.ar      1 ESI        -0.0155
      8 C5          8.2290    1.5180   26.1370 C.2       1 ESI        -0.0536
      9 C6          9.6550    3.3990   23.3520 C.ar      1 ESI        -0.0472
     10 C7          9.6440    4.6920   23.8400 C.ar      1 ESI        -0.0674
     11 C8          9.1550    4.9540   25.1360 C.ar      1 ESI        -0.0610
     12 C9          8.6720    3.9300   25.9340 C.ar      1 ESI         0.0037
     13 I9          8.0320    4.5270   27.8120 I         1 ESI        -0.0547
     14 H1          7.0526   -2.1136   27.3301 H         1 ESI         0.3182
     15 H2          7.0522   -0.3520   27.6119 H         1 ESI         0.3182
     16 H3          8.8479   -1.7353   24.2579 H         1 ESI         0.3182
     17 H4          8.1450   -2.9288   25.3823 H         1 ESI         0.3182
     18 H5          7.8426    1.6038   27.1515 H         1 ESI         0.0425
     19 H6         10.0360    3.1877   22.3594 H         1 ESI         0.0593
     20 H7         10.0118    5.5057   23.2255 H         1 ESI         0.0573
     21 H8          9.1570    5.9703   25.5130 H         1 ESI         0.0587
@<TRIPOS>BOND
     1    2    5 1  
     2    6    5 1  
     3    7    6 ar 
     4   12    7 ar 
     5   11   10 ar 
     6   12   13 1  
     7    8    2 2  
     8    7    8 1  
     9   12   11 ar 
    10   10    9 ar 
    11    6    9 ar 
    12    2    1 1  
    13    1    3 ar 
    14    1    4 ar 
    15    3   14 1  
    16    3   15 1  
    17    4   16 1  
    18    4   17 1  
    19    8   18 1  
    20    9   19 1  
    21   10   20 1  
    22   11   21 1  
@<TRIPOS>SUBSTRUCTURE
     1 ESI         1

