### 
### Created by X-TOOL on Mon Sep 10 21:12:47 2018
### 

@<TRIPOS>MOLECULE
1c5y_ligand
   20    21     1     0     0
SMALL
GAST_HUCK


@<TRIPOS>ATOM
      1 C0          8.1660   -0.9270   25.8650 C.cat     1 ESP         0.2518
      2 C1          8.4900    0.3310   25.4350 C.2       1 ESP         0.0906
      3 N1          7.5500   -1.0330   27.0040 N.pl3     1 ESP        -0.2702
      4 N2          8.5110   -1.9100   25.0980 N.pl3     1 ESP        -0.2702
      5 S2          9.0730    0.5490   23.7620 S.3       1 ESP        -0.0116
      6 C3          9.2650    2.2370   23.9650 C.ar      1 ESP         0.1073
      7 C4          8.8960    2.5900   25.2540 C.ar      1 ESP         0.0013
      8 C5          8.4730    1.5580   26.0570 C.2       1 ESP        -0.0474
      9 N6          9.6740    3.1910   23.1680 N.ar      1 ESP        -0.2884
     10 C7          9.7660    4.4770   23.4640 C.ar      1 ESP         0.0008
     11 C8          9.3970    4.8440   24.7560 C.ar      1 ESP        -0.0442
     12 C9          8.9570    3.9010   25.6530 C.ar      1 ESP        -0.0477
     13 H1          7.2883   -1.9621   27.3635 H         1 ESP         0.3182
     14 H2          7.3233   -0.1879   27.5475 H         1 ESP         0.3182
     15 H3          8.9982   -1.7238   24.2098 H         1 ESP         0.3182
     16 H4          8.2985   -2.8789   25.3755 H         1 ESP         0.3182
     17 H5          8.1543    1.6983   27.0888 H         1 ESP         0.0436
     18 H6         10.1102    5.2063   22.7397 H         1 ESP         0.0776
     19 H7          9.4576    5.8837   25.0566 H         1 ESP         0.0642
     20 H8          8.6637    4.1874   26.6565 H         1 ESP         0.0695
@<TRIPOS>BOND
     1    5    2 1  
     2    6    5 1  
     3    7    6 ar 
     4   11   10 ar 
     5   12    7 ar 
     6   12   11 ar 
     7   10    9 ar 
     8    6    9 ar 
     9    2    8 2  
    10    8    7 1  
    11    2    1 1  
    12    1    3 ar 
    13    1    4 ar 
    14    3   13 1  
    15    3   14 1  
    16    4   15 1  
    17    4   16 1  
    18    8   17 1  
    19   10   18 1  
    20   11   19 1  
    21   12   20 1  
@<TRIPOS>SUBSTRUCTURE
     1 ESP         1

