### 
### Created by X-TOOL on Fri Sep 26 17:34:16 2014
### 

@<TRIPOS>MOLECULE
1c5z_ligand
   18    18     1     0     0
SMALL
GAST_HUCK


@<TRIPOS>ATOM
      1 C1          8.7740    0.7720   25.1310 C.ar      1 BAM         0.0260
      2 C2          8.6590    1.9420   25.9110 C.ar      1 BAM        -0.0565
      3 C3          9.0010    3.1910   25.3970 C.ar      1 BAM        -0.0618
      4 C4          9.4630    3.2990   24.0930 C.ar      1 BAM        -0.0618
      5 C5          9.5890    2.1720   23.3030 C.ar      1 BAM        -0.0618
      6 C6          9.2490    0.9350   23.8170 C.ar      1 BAM        -0.0565
      7 C           8.4270   -0.4950   25.6370 C.cat     1 BAM         0.2356
      8 N1          7.8210   -0.6090   26.8000 N.pl3     1 BAM        -0.2721
      9 N2          8.7180   -1.5550   24.9310 N.pl3     1 BAM        -0.2721
     10 H1          8.2975    1.8677   26.9302 H         1 BAM         0.0617
     11 H2          8.9064    4.0768   26.0146 H         1 BAM         0.0618
     12 H3          9.7261    4.2713   23.6923 H         1 BAM         0.0618
     13 H4          9.9526    2.2579   22.2854 H         1 BAM         0.0618
     14 H5          9.3519    0.0599   23.1856 H         1 BAM         0.0617
     15 H6          7.5713   -1.5406   27.1615 H         1 BAM         0.3181
     16 H7          7.5965    0.2334   27.3485 H         1 BAM         0.3181
     17 H8          9.1923   -1.4543   24.0223 H         1 BAM         0.3181
     18 H9          8.4731   -2.4915   25.2831 H         1 BAM         0.3181
@<TRIPOS>BOND
     1    1    2 ar 
     2    1    6 ar 
     3    1    7 1  
     4    2    3 ar 
     5    3    4 ar 
     6    4    5 ar 
     7    5    6 ar 
     8    7    8 ar 
     9    7    9 ar 
    10    2   10 1  
    11    3   11 1  
    12    4   12 1  
    13    5   13 1  
    14    6   14 1  
    15    8   15 1  
    16    8   16 1  
    17    9   17 1  
    18    9   18 1  
@<TRIPOS>SUBSTRUCTURE
     1 BAM         1

