### 
### Created by X-TOOL on Mon Sep 10 21:12:47 2018
### 

@<TRIPOS>MOLECULE
1c6y_ligand
   94    98     1     0     0
SMALL
GAST_HUCK


@<TRIPOS>ATOM
      1 N1          9.6990   25.2450    3.2100 N.4       1 MK1         0.2576
      2 C1          9.6770   25.3590    4.7010 C.3       1 MK1         0.0316
      3 C2         10.9380   26.0730    5.1550 C.3       1 MK1         0.1092
      4 C3         10.8940   26.3430    6.6200 C.2       1 MK1         0.2304
      5 O1         11.3860   25.5440    7.4050 O.2       1 MK1        -0.3906
      6 N2         10.3230   27.4990    7.0590 N.am      1 MK1        -0.2769
      7 C4         10.3660   27.8070    8.5210 C.3       1 MK1         0.0448
      8 C5         11.7190   27.5910    9.2050 C.3       1 MK1        -0.0396
      9 C6          9.3240   26.8700    9.2300 C.3       1 MK1        -0.0396
     10 C7         10.1480   29.3650    8.7070 C.3       1 MK1        -0.0396
     11 N3         12.0990   25.2500    4.8060 N.4       1 MK1         0.2635
     12 C8         12.1230   25.0900    3.3230 C.3       1 MK1         0.0117
     13 C9         10.8500   24.5320    2.7350 C.3       1 MK1         0.0112
     14 C10        13.2550   26.1740    4.6800 C.3       1 MK1        -0.0026
     15 C11        14.6140   25.5620    4.9970 C.3       1 MK1         0.0974
     16 O2         15.5460   26.3460    4.4710 O.3       1 MK1        -0.3864
     17 C12        14.8000   25.4690    6.4730 C.3       1 MK1        -0.0003
     18 C13        16.0710   24.7820    7.0010 C.3       1 MK1         0.0608
     19 C14        16.1650   25.0190    8.5190 C.3       1 MK1         0.0007
     20 C15        17.3000   24.1620    9.0520 C.ar      1 MK1        -0.0405
     21 C16        18.6130   24.2300    8.5040 C.ar      1 MK1        -0.0602
     22 C17        19.6480   23.5720    9.1560 C.ar      1 MK1        -0.0686
     23 C18        19.3640   22.8960   10.3450 C.ar      1 MK1        -0.0687
     24 C19        18.0400   22.5990   10.7330 C.ar      1 MK1        -0.0686
     25 C20        16.9880   23.2700   10.0870 C.ar      1 MK1        -0.0602
     26 C21        16.0830   23.1750    6.6870 C.2       1 MK1         0.1831
     27 O3         15.1900   22.4150    7.0730 O.2       1 MK1        -0.3964
     28 N4         17.1480   22.7100    6.1060 N.am      1 MK1        -0.2707
     29 C22        17.4460   21.2760    6.2430 C.3       1 MK1         0.1006
     30 C23        18.9400   20.9680    6.5180 C.3       1 MK1         0.0951
     31 O4         19.6840   21.7400    5.6700 O.3       1 MK1        -0.3857
     32 C24        19.1730   19.4500    6.1960 C.3       1 MK1         0.0085
     33 C25        18.2770   19.5520    4.9180 C.ar      1 MK1        -0.0361
     34 C26        18.4410   18.8610    3.7400 C.ar      1 MK1        -0.0667
     35 C27        17.6260   19.3360    2.6860 C.ar      1 MK1        -0.0755
     36 C28        16.6860   20.4010    2.7630 C.ar      1 MK1        -0.0754
     37 C29        16.4960   21.0390    3.9520 C.ar      1 MK1        -0.0646
     38 C30        17.3320   20.6070    4.9740 C.ar      1 MK1        -0.0133
     39 C31         8.5060   24.5940    2.5860 C.3       1 MK1         0.0087
     40 C32         7.9260   23.4130    3.4090 C.ar      1 MK1         0.0294
     41 C33         6.9230   23.6130    4.3960 C.ar      1 MK1         0.0176
     42 N5          6.3890   22.5620    5.0620 N.ar      1 MK1        -0.3042
     43 C34         6.7530   21.2810    4.8100 C.ar      1 MK1         0.0042
     44 C35         7.7640   20.9610    3.8650 C.ar      1 MK1        -0.0403
     45 C36         8.3540   22.0670    3.1730 C.ar      1 MK1        -0.0354
     46 H1          9.7466   26.1875    2.8558 H         1 MK1         0.2056
     47 H2          9.6393   24.3547    5.1482 H         1 MK1         0.0899
     48 H3          8.7932   25.9337    5.0150 H         1 MK1         0.0899
     49 H4         11.0127   27.0346    4.6261 H         1 MK1         0.1155
     50 H5          9.8845   28.1280    6.4171 H         1 MK1         0.1859
     51 H6         11.6356   27.8467   10.2716 H         1 MK1         0.0254
     52 H7         12.4758   28.2340    8.7319 H         1 MK1         0.0254
     53 H8         12.0174   26.5372    9.1029 H         1 MK1         0.0254
     54 H9          9.3281   27.0695   10.3117 H         1 MK1         0.0254
     55 H10         9.5940   25.8190    9.0500 H         1 MK1         0.0254
     56 H11         8.3201   27.0653    8.8249 H         1 MK1         0.0254
     57 H12        10.1761   29.6138    9.7781 H         1 MK1         0.0254
     58 H13         9.1713   29.6510    8.2897 H         1 MK1         0.0254
     59 H14        10.9453   29.9120    8.1825 H         1 MK1         0.0254
     60 H15        12.2071   24.4235    5.3728 H         1 MK1         0.2061
     61 H16        12.9483   24.4106    3.0636 H         1 MK1         0.0868
     62 H17        12.3056   26.0772    2.8734 H         1 MK1         0.0868
     63 H18        10.8954   24.6147    1.6391 H         1 MK1         0.0868
     64 H19        10.7581   23.4734    3.0194 H         1 MK1         0.0868
     65 H20        13.0930   27.0171    5.3677 H         1 MK1         0.0840
     66 H21        13.2824   26.5452    3.6449 H         1 MK1         0.0840
     67 H22        14.6814   24.5562    4.5567 H         1 MK1         0.0648
     68 H23        15.4197   26.3994    3.5310 H         1 MK1         0.2100
     69 H24        13.9385   24.9168    6.8767 H         1 MK1         0.0321
     70 H25        14.7954   26.4955    6.8682 H         1 MK1         0.0321
     71 H26        16.9447   25.2371    6.5116 H         1 MK1         0.0561
     72 H27        15.2197   24.7310    9.0022 H         1 MK1         0.0453
     73 H28        16.3711   26.0806    8.7202 H         1 MK1         0.0453
     74 H29        18.8014   24.7863    7.5929 H         1 MK1         0.0557
     75 H30        20.6536   23.5828    8.7513 H         1 MK1         0.0599
     76 H31        20.1826   22.5913   10.9869 H         1 MK1         0.0559
     77 H32        17.8395   21.8708   11.5106 H         1 MK1         0.0599
     78 H33        15.9587   23.1016   10.3824 H         1 MK1         0.0557
     79 H34        17.7493   23.3111    5.5796 H         1 MK1         0.1880
     80 H35        16.7902   20.8386    7.0102 H         1 MK1         0.0732
     81 H36        19.2005   21.1848    7.5645 H         1 MK1         0.0659
     82 H37        19.5391   22.6574    5.8694 H         1 MK1         0.2103
     83 H38        18.7780   18.7671    6.9626 H         1 MK1         0.0439
     84 H39        20.2222   19.1963    5.9843 H         1 MK1         0.0439
     85 H40        19.1296   18.0311    3.6298 H         1 MK1         0.0537
     86 H41        17.7275   18.8407    1.7271 H         1 MK1         0.0541
     87 H42        16.1265   20.7020    1.8847 H         1 MK1         0.0541
     88 H43        15.7548   21.8181    4.0889 H         1 MK1         0.0538
     89 H44         8.7980   24.2144    1.5957 H         1 MK1         0.0997
     90 H45         7.7190   25.3537    2.4701 H         1 MK1         0.0997
     91 H46         6.5819   24.6177    4.6179 H         1 MK1         0.0767
     92 H47         6.2586   20.4780    5.3447 H         1 MK1         0.0767
     93 H48         8.0712   19.9383    3.6784 H         1 MK1         0.0693
     94 H49         9.1432   21.8810    2.4535 H         1 MK1         0.0680
@<TRIPOS>BOND
     1    1   39 1  
     2    1   13 1  
     3    1    2 1  
     4    2    3 1  
     5    3   11 1  
     6    3    4 1  
     7    4    6 am 
     8    4    5 2  
     9    6    7 1  
    10    7   10 1  
    11    7    9 1  
    12    7    8 1  
    13   11   14 1  
    14   11   12 1  
    15   12   13 1  
    16   14   15 1  
    17   15   17 1  
    18   15   16 1  
    19   17   18 1  
    20   18   26 1  
    21   18   19 1  
    22   19   20 1  
    23   20   25 ar 
    24   20   21 ar 
    25   21   22 ar 
    26   22   23 ar 
    27   23   24 ar 
    28   24   25 ar 
    29   26   28 am 
    30   26   27 2  
    31   28   29 1  
    32   29   38 1  
    33   29   30 1  
    34   30   32 1  
    35   30   31 1  
    36   32   33 1  
    37   33   38 ar 
    38   33   34 ar 
    39   34   35 ar 
    40   35   36 ar 
    41   36   37 ar 
    42   37   38 ar 
    43   39   40 1  
    44   40   45 ar 
    45   40   41 ar 
    46   41   42 ar 
    47   42   43 ar 
    48   43   44 ar 
    49   44   45 ar 
    50    1   46 1  
    51    2   47 1  
    52    2   48 1  
    53    3   49 1  
    54    6   50 1  
    55    8   51 1  
    56    8   52 1  
    57    8   53 1  
    58    9   54 1  
    59    9   55 1  
    60    9   56 1  
    61   10   57 1  
    62   10   58 1  
    63   10   59 1  
    64   11   60 1  
    65   12   61 1  
    66   12   62 1  
    67   13   63 1  
    68   13   64 1  
    69   14   65 1  
    70   14   66 1  
    71   15   67 1  
    72   16   68 1  
    73   17   69 1  
    74   17   70 1  
    75   18   71 1  
    76   19   72 1  
    77   19   73 1  
    78   21   74 1  
    79   22   75 1  
    80   23   76 1  
    81   24   77 1  
    82   25   78 1  
    83   28   79 1  
    84   29   80 1  
    85   30   81 1  
    86   31   82 1  
    87   32   83 1  
    88   32   84 1  
    89   34   85 1  
    90   35   86 1  
    91   36   87 1  
    92   37   88 1  
    93   39   89 1  
    94   39   90 1  
    95   41   91 1  
    96   43   92 1  
    97   44   93 1  
    98   45   94 1  
@<TRIPOS>SUBSTRUCTURE
     1 MK1         1

