### 
### Created by X-TOOL on Mon Sep 10 21:12:47 2018
### 

@<TRIPOS>MOLECULE
1c70_ligand
   98   103     1     0     0
SMALL
GAST_HUCK


@<TRIPOS>ATOM
      1 N1          9.2130   23.9200    2.6960 N.4       1 L75         0.2609
      2 C1          9.2320   23.8990    4.1620 C.3       1 L75         0.0319
      3 C2         10.3950   24.7820    4.6440 C.3       1 L75         0.1092
      4 C3         10.3890   24.8560    6.1620 C.2       1 L75         0.2304
      5 O1         10.7510   23.8540    6.8230 O.2       1 L75        -0.3906
      6 N2         10.0480   26.0520    6.6740 N.am      1 L75        -0.2769
      7 C4         10.0400   26.3380    8.1330 C.3       1 L75         0.0448
      8 C5          9.5350   27.7760    8.3410 C.3       1 L75        -0.0396
      9 C6         11.4640   26.2560    8.6960 C.3       1 L75        -0.0396
     10 C7          9.0790   25.3510    8.8630 C.3       1 L75        -0.0396
     11 N3         11.6710   24.2400    4.1300 N.4       1 L75         0.2635
     12 C8         11.6610   24.1760    2.6430 C.3       1 L75         0.0117
     13 C9         10.4460   23.3390    2.1640 C.3       1 L75         0.0115
     14 C10        12.7950   25.0880    4.5620 C.3       1 L75        -0.0026
     15 C11        13.9980   24.2240    4.8280 C.3       1 L75         0.0974
     16 O2         15.1190   24.9000    4.3380 O.3       1 L75        -0.3864
     17 C12        14.2440   23.9660    6.2840 C.3       1 L75        -0.0003
     18 C13        15.4490   23.1300    6.7380 C.3       1 L75         0.0608
     19 C14        15.5560   23.1740    8.2650 C.3       1 L75         0.0007
     20 C15        16.5840   22.1750    8.8200 C.ar      1 L75        -0.0405
     21 C16        17.9720   22.3160    8.5250 C.ar      1 L75        -0.0602
     22 C17        18.8750   21.4040    9.0630 C.ar      1 L75        -0.0686
     23 C18        18.4030   20.3540    9.8720 C.ar      1 L75        -0.0687
     24 C19        17.0430   20.1910   10.1550 C.ar      1 L75        -0.0686
     25 C20        16.1260   21.1030    9.6350 C.ar      1 L75        -0.0602
     26 C21        15.3170   21.6910    6.2250 C.2       1 L75         0.1831
     27 O3         14.2920   21.0510    6.4710 O.2       1 L75        -0.3964
     28 N4         16.3950   21.2200    5.5770 N.am      1 L75        -0.2707
     29 C22        16.5420   19.7620    5.4030 C.3       1 L75         0.1006
     30 C23        17.9850   19.3260    5.8830 C.3       1 L75         0.0951
     31 O4         18.9080   20.2670    5.3540 O.3       1 L75        -0.3857
     32 C24        18.1730   18.0050    5.0670 C.3       1 L75         0.0085
     33 C25        17.3740   18.2930    3.8190 C.ar      1 L75        -0.0361
     34 C26        17.6360   17.7740    2.5530 C.ar      1 L75        -0.0667
     35 C27        16.9120   18.2950    1.4880 C.ar      1 L75        -0.0755
     36 C28        15.9700   19.3330    1.7130 C.ar      1 L75        -0.0754
     37 C29        15.7440   19.8340    2.9960 C.ar      1 L75        -0.0646
     38 C30        16.5100   19.3110    4.0150 C.ar      1 L75        -0.0133
     39 C31         8.0010   23.2110    2.1710 C.3       1 L75         0.0382
     40 C32         8.9420   17.2010    2.1820 C.ar      1 L75        -0.0770
     41 C33         9.5700   18.4780    1.9380 C.ar      1 L75        -0.0351
     42 C34         8.7650   19.6210    2.1370 C.ar      1 L75         0.1203
     43 C35         7.4530   19.5700    2.5920 C.ar      1 L75        -0.0223
     44 C36         6.7990   18.3310    2.7810 C.ar      1 L75        -0.0766
     45 C37         7.5540   17.1370    2.5700 C.ar      1 L75        -0.0806
     46 O5          9.1560   20.8990    1.9530 O.3       1 L75        -0.2447
     47 C38         8.0760   21.6860    2.3730 C.2       1 L75         0.1482
     48 C39         6.9360   20.8970    2.8340 C.2       1 L75        -0.0448
     49 H1          9.1656   24.8810    2.3955 H         1 L75         0.2059
     50 H2          9.3763   22.8680    4.5171 H         1 L75         0.0899
     51 H3          8.2812   24.2914    4.5517 H         1 L75         0.0899
     52 H4         10.2605   25.7981    4.2448 H         1 L75         0.1155
     53 H5          9.7876   26.7834    6.0437 H         1 L75         0.1859
     54 H6          9.5215   28.0079    9.4162 H         1 L75         0.0254
     55 H7          8.5179   27.8701    7.9328 H         1 L75         0.0254
     56 H8         10.2045   28.4783    7.8228 H         1 L75         0.0254
     57 H9         11.4445   26.4693    9.7749 H         1 L75         0.0254
     58 H10        12.1023   26.9938    8.1879 H         1 L75         0.0254
     59 H11        11.8667   25.2461    8.5292 H         1 L75         0.0254
     60 H12         9.0790   25.5693    9.9411 H         1 L75         0.0254
     61 H13         9.4196   24.3182    8.6981 H         1 L75         0.0254
     62 H14         8.0604   25.4692    8.4650 H         1 L75         0.0254
     63 H15        11.7987   23.3100    4.4973 H         1 L75         0.2061
     64 H16        12.5908   23.7053    2.2910 H         1 L75         0.0868
     65 H17        11.5877   25.1943    2.2336 H         1 L75         0.0868
     66 H18        10.4086   23.3430    1.0647 H         1 L75         0.0868
     67 H19        10.5488   22.3046    2.5236 H         1 L75         0.0868
     68 H20        12.5179   25.6247    5.4813 H         1 L75         0.0840
     69 H21        13.0323   25.8143    3.7707 H         1 L75         0.0840
     70 H22        13.8719   23.2632    4.3075 H         1 L75         0.0648
     71 H23        14.9988   25.0815    3.4133 H         1 L75         0.2100
     72 H24        13.3469   23.4596    6.6696 H         1 L75         0.0321
     73 H25        14.3449   24.9501    6.7651 H         1 L75         0.0321
     74 H26        16.3638   23.5674    6.3116 H         1 L75         0.0561
     75 H27        14.5706   22.9383    8.6932 H         1 L75         0.0453
     76 H28        15.8539   24.1889    8.5672 H         1 L75         0.0453
     77 H29        18.3192   23.1230    7.8900 H         1 L75         0.0557
     78 H30        19.9353   21.5019    8.8601 H         1 L75         0.0599
     79 H31        19.1147   19.6503   10.2884 H         1 L75         0.0559
     80 H32        16.7061   19.3653   10.7713 H         1 L75         0.0599
     81 H33        15.0691   20.9958    9.8507 H         1 L75         0.0557
     82 H34        17.0866   21.8470    5.2184 H         1 L75         0.1880
     83 H35        15.7585   19.2532    5.9837 H         1 L75         0.0732
     84 H36        18.0780   19.2014    6.9720 H         1 L75         0.0659
     85 H37        19.7915   19.9316    5.4516 H         1 L75         0.2103
     86 H38        17.7681   17.1383    5.6100 H         1 L75         0.0439
     87 H39        19.2327   17.8277    4.8314 H         1 L75         0.0439
     88 H40        18.3751   16.9950    2.4049 H         1 L75         0.0537
     89 H41        17.0661   17.9095    0.4866 H         1 L75         0.0541
     90 H42        15.4176   19.7429    0.8752 H         1 L75         0.0541
     91 H43        14.9997   20.5997    3.1823 H         1 L75         0.0538
     92 H44         7.9084   23.4201    1.0950 H         1 L75         0.1045
     93 H45         7.1135   23.5932    2.6966 H         1 L75         0.1045
     94 H46         9.5153   16.2874    2.0733 H         1 L75         0.0514
     95 H47        10.6032   18.5551    1.6194 H         1 L75         0.0551
     96 H48         5.7570   18.2884    3.0768 H         1 L75         0.0515
     97 H49         7.0787   16.1719    2.7029 H         1 L75         0.0517
     98 H50         5.9775   21.2158    3.2408 H         1 L75         0.0215
@<TRIPOS>BOND
     1    1   39 1  
     2    1   13 1  
     3    1    2 1  
     4    2    3 1  
     5    3   11 1  
     6    3    4 1  
     7    4    6 am 
     8    4    5 2  
     9    6    7 1  
    10    7   10 1  
    11    7    9 1  
    12    7    8 1  
    13   11   14 1  
    14   11   12 1  
    15   12   13 1  
    16   14   15 1  
    17   15   17 1  
    18   15   16 1  
    19   17   18 1  
    20   18   26 1  
    21   18   19 1  
    22   19   20 1  
    23   20   25 ar 
    24   20   21 ar 
    25   21   22 ar 
    26   22   23 ar 
    27   23   24 ar 
    28   24   25 ar 
    29   26   28 am 
    30   26   27 2  
    31   28   29 1  
    32   29   38 1  
    33   29   30 1  
    34   30   32 1  
    35   30   31 1  
    36   32   33 1  
    37   33   38 ar 
    38   33   34 ar 
    39   34   35 ar 
    40   35   36 ar 
    41   36   37 ar 
    42   37   38 ar 
    43   39   47 1  
    44   47   48 2  
    45   47   46 1  
    46   46   42 1  
    47   42   43 ar 
    48   42   41 ar 
    49   41   40 ar 
    50   40   45 ar 
    51   45   44 ar 
    52   44   43 ar 
    53   43   48 1  
    54    1   49 1  
    55    2   50 1  
    56    2   51 1  
    57    3   52 1  
    58    6   53 1  
    59    8   54 1  
    60    8   55 1  
    61    8   56 1  
    62    9   57 1  
    63    9   58 1  
    64    9   59 1  
    65   10   60 1  
    66   10   61 1  
    67   10   62 1  
    68   11   63 1  
    69   12   64 1  
    70   12   65 1  
    71   13   66 1  
    72   13   67 1  
    73   14   68 1  
    74   14   69 1  
    75   15   70 1  
    76   16   71 1  
    77   17   72 1  
    78   17   73 1  
    79   18   74 1  
    80   19   75 1  
    81   19   76 1  
    82   21   77 1  
    83   22   78 1  
    84   23   79 1  
    85   24   80 1  
    86   25   81 1  
    87   28   82 1  
    88   29   83 1  
    89   30   84 1  
    90   31   85 1  
    91   32   86 1  
    92   32   87 1  
    93   34   88 1  
    94   35   89 1  
    95   36   90 1  
    96   37   91 1  
    97   39   92 1  
    98   39   93 1  
    99   40   94 1  
   100   41   95 1  
   101   44   96 1  
   102   45   97 1  
   103   48   98 1  
@<TRIPOS>SUBSTRUCTURE
     1 L75         1

