### 
### Created by X-TOOL on Mon Sep 10 21:12:47 2018
### 

@<TRIPOS>MOLECULE
1c84_ligand
   26    27     1     0     0
SMALL
GAST_HUCK


@<TRIPOS>ATOM
      1 C1         46.1120    9.8450    1.1060 C.ar      1 761        -0.0662
      2 C2         46.2680   10.9550    1.9320 C.ar      1 761        -0.0614
      3 C3         45.5140   12.1070    1.7330 C.ar      1 761        -0.0326
      4 C4         44.5780   12.1350    0.6840 C.ar      1 761        -0.0234
      5 C5         44.4070   11.0050   -0.1500 C.ar      1 761        -0.0588
      6 C6         45.1610    9.8620    0.0800 C.ar      1 761        -0.0655
      7 C11        45.5930   13.2190    2.5900 C.ar      1 761        -0.0362
      8 C12        44.8060   14.3510    2.3370 C.ar      1 761         0.0822
      9 C13        43.9380   14.3960    1.2320 C.ar      1 761         0.0382
     10 C14        43.8280   13.2750    0.3920 C.ar      1 761        -0.0435
     11 C17        43.2860   15.6450    0.8670 C.2       1 761         0.0598
     12 O18        43.0190   16.4860    1.6590 O.co2     1 761        -0.5636
     13 O19        43.0500   15.7450   -0.4360 O.co2     1 761        -0.5636
     14 N20        44.7710   15.4290    3.1600 N.am      1 761        -0.2227
     15 C21        45.1960   15.5540    4.4340 C.2       1 761         0.2728
     16 O22        45.4380   14.5940    5.1840 O.2       1 761        -0.3523
     17 C23        45.3600   17.0140    4.9800 C.2       1 761         0.1501
     18 O24        44.4140   17.7450    5.1450 O.co2     1 761        -0.5454
     19 O25        46.6300   17.3760    5.3420 O.co2     1 761        -0.5454
     20 H1         46.7283    8.9663    1.2581 H         1 761         0.0610
     21 H2         46.9876   10.9210    2.7420 H         1 761         0.0578
     22 H3         43.6915   11.0314   -0.9639 H         1 761         0.0620
     23 H4         45.0127    8.9823   -0.5358 H         1 761         0.0576
     24 H5         46.2606   13.2009    3.4439 H         1 761         0.0440
     25 H6         43.1706   13.2954   -0.4697 H         1 761         0.0659
     26 H7         44.3701   16.2545    2.7626 H         1 761         0.2292
@<TRIPOS>BOND
     1    1    6 ar 
     2    1    2 ar 
     3    2    3 ar 
     4    3    7 ar 
     5    3    4 ar 
     6    4   10 ar 
     7    4    5 ar 
     8    5    6 ar 
     9   10    9 ar 
    10    9   11 1  
    11    9    8 ar 
    12    8   14 1  
    13    8    7 ar 
    14   14   15 am 
    15   15   17 1  
    16   15   16 2  
    17   17   19 ar 
    18   17   18 ar 
    19   11   13 ar 
    20   11   12 ar 
    21    1   20 1  
    22    2   21 1  
    23    5   22 1  
    24    6   23 1  
    25    7   24 1  
    26   10   25 1  
    27   14   26 1  
@<TRIPOS>SUBSTRUCTURE
     1 761         1

