### 
### Created by X-TOOL on Mon Sep 10 21:12:47 2018
### 

@<TRIPOS>MOLECULE
1c85_ligand
   20    20     1     0     0
SMALL
GAST_HUCK


@<TRIPOS>ATOM
      1 C1         12.4100   45.1770   19.0250 C.ar      1 OBA        -0.0726
      2 C2         11.4800   45.8550   19.8130 C.ar      1 OBA        -0.0370
      3 C3         10.1210   45.8720   19.4630 C.ar      1 OBA         0.0824
      4 C4          9.7490   45.2960   18.2630 C.ar      1 OBA         0.0306
      5 C5         10.6950   44.6340   17.4660 C.ar      1 OBA        -0.0610
      6 C6         12.0100   44.5500   17.8660 C.ar      1 OBA        -0.0733
      7 C10         8.3610   45.4000   17.7930 C.2       1 OBA         0.0548
      8 O11         8.3270   45.2570   16.4810 O.co2     1 OBA        -0.5656
      9 O12         7.4030   45.4890   18.4750 O.co2     1 OBA        -0.5656
     10 N13         9.1840   46.4720   20.2310 N.am      1 OBA        -0.2226
     11 C14         9.2780   47.0290   21.4530 C.2       1 OBA         0.2725
     12 O15        10.3650   47.0510   22.1100 O.2       1 OBA        -0.3525
     13 C16         7.8280   47.2610   22.0490 C.2       1 OBA         0.1500
     14 O17         7.3860   48.1360   22.6900 O.co2     1 OBA        -0.5454
     15 O18         6.9850   46.1480   21.9320 O.co2     1 OBA        -0.5454
     16 H1         13.4509   45.1435   19.3259 H         1 OBA         0.0599
     17 H2         11.8104   46.3743   20.7053 H         1 OBA         0.0512
     18 H3         10.3884   44.1852   16.5281 H         1 OBA         0.0611
     19 H4         12.7261   43.9936   17.2721 H         1 OBA         0.0497
     20 H5          8.2710   46.5080   19.8245 H         1 OBA         0.2288
@<TRIPOS>BOND
     1    1    2 ar 
     2    1    6 ar 
     3    2    3 ar 
     4    3    4 ar 
     5    3   10 1  
     6    4    5 ar 
     7    4    7 1  
     8    5    6 ar 
     9    7    8 ar 
    10    7    9 ar 
    11   10   11 am 
    12   11   12 2  
    13   11   13 1  
    14   13   14 ar 
    15   13   15 ar 
    16    1   16 1  
    17    2   17 1  
    18    5   18 1  
    19    6   19 1  
    20   10   20 1  
@<TRIPOS>SUBSTRUCTURE
     1 OBA         1

