### 
### Created by X-TOOL on Mon Sep 10 21:12:47 2018
### 

@<TRIPOS>MOLECULE
1c87_ligand
   25    26     1     0     0
SMALL
GAST_HUCK


@<TRIPOS>ATOM
      1 O1         13.8520   44.7350   16.7810 O.3       1 OPA        -0.3707
      2 C2         13.8860   45.2420   18.1090 C.3       1 OPA         0.0750
      3 C3         12.4530   45.3500   18.5400 C.2       1 OPA         0.0147
      4 C4         11.3710   45.0070   17.8060 C.2       1 OPA        -0.0724
      5 C5         11.4160   44.1730   16.5640 C.3       1 OPA        -0.0185
      6 C6         12.8920   43.6890   16.5220 C.3       1 OPA         0.0536
      7 S13        12.0250   46.1190   20.0430 S.3       1 OPA        -0.0212
      8 C14        10.3900   45.9070   19.6500 C.2       1 OPA         0.1339
      9 C15        10.1010   45.3820   18.4480 C.2       1 OPA         0.0006
     10 C16         8.6910   45.2280   17.9250 C.2       1 OPA         0.0260
     11 O17         7.6230   45.4050   18.6800 O.co2     1 OPA        -0.5769
     12 O18         8.5240   44.8110   16.8090 O.co2     1 OPA        -0.5769
     13 N19         9.3280   46.2860   20.5150 N.am      1 OPA        -0.2107
     14 C20         9.4010   46.9470   21.6870 C.2       1 OPA         0.2766
     15 C21         7.9860   47.3240   22.2660 C.2       1 OPA         0.1508
     16 O22         7.0460   46.5860   22.2500 O.co2     1 OPA        -0.5455
     17 O23         7.8950   48.5360   22.8840 O.co2     1 OPA        -0.5455
     18 O24        10.4090   47.1980   22.3170 O.2       1 OPA        -0.3509
     19 H1         14.3681   46.2305   18.1298 H         1 OPA         0.0668
     20 H2         14.4338   44.5529   18.7686 H         1 OPA         0.0668
     21 H3         11.1713   44.7734   15.6754 H         1 OPA         0.0370
     22 H4         10.7226   43.3219   16.6338 H         1 OPA         0.0370
     23 H5         13.0216   42.9028   17.2804 H         1 OPA         0.0576
     24 H6         13.0928   43.2724   15.5239 H         1 OPA         0.0576
     25 H7          8.4090   46.0293   20.2156 H         1 OPA         0.2352
@<TRIPOS>BOND
     1    1    6 1  
     2    1    2 1  
     3    2    3 1  
     4    3    7 1  
     5    3    4 2  
     6    4    9 1  
     7    4    5 1  
     8    5    6 1  
     9    9   10 1  
    10    9    8 2  
    11    8   13 am 
    12    8    7 1  
    13   13   14 am 
    14   14   18 2  
    15   14   15 1  
    16   15   17 ar 
    17   15   16 ar 
    18   10   12 ar 
    19   10   11 ar 
    20    2   19 1  
    21    2   20 1  
    22    5   21 1  
    23    5   22 1  
    24    6   23 1  
    25    6   24 1  
    26   13   25 1  
@<TRIPOS>SUBSTRUCTURE
     1 OPA         1

