### 
### Created by X-TOOL on Mon Sep 10 21:12:47 2018
### 

@<TRIPOS>MOLECULE
1c88_ligand
   27    28     1     0     0
SMALL
GAST_HUCK


@<TRIPOS>ATOM
      1 N1         45.3360   10.3740   -0.2750 N.4       1 OTA         0.2365
      2 C2         45.8220   10.6290    1.1010 C.3       1 OTA        -0.0061
      3 C3         45.3220   11.9950    1.5280 C.2       1 OTA         0.0333
      4 C4         44.5870   12.8170    0.7260 C.2       1 OTA        -0.0668
      5 C5         43.9230   12.4140   -0.5600 C.3       1 OTA        -0.0017
      6 C6         43.9320   10.8990   -0.6460 C.3       1 OTA        -0.0288
      7 S13        45.8010   12.7620    3.0770 S.3       1 OTA        -0.0182
      8 C14        44.9160   14.1380    2.5710 C.2       1 OTA         0.1340
      9 C15        44.3520   14.0960    1.3660 C.2       1 OTA         0.0008
     10 C16        43.6680   15.2970    0.8590 C.2       1 OTA         0.0260
     11 O17        43.3030   16.2120    1.5490 O.co2     1 OTA        -0.5769
     12 O18        43.4890   15.2180   -0.4400 O.co2     1 OTA        -0.5769
     13 N19        44.8140   15.2810    3.4350 N.am      1 OTA        -0.2107
     14 C20        45.4360   15.4480    4.6130 C.2       1 OTA         0.2766
     15 C21        45.2080   16.8310    5.1820 C.2       1 OTA         0.1508
     16 O22        46.0190   17.4230    5.8110 O.co2     1 OTA        -0.5455
     17 O23        43.9100   17.2990    5.0610 O.co2     1 OTA        -0.5455
     18 O24        46.0470   14.5650    5.2640 O.2       1 OTA        -0.3509
     19 H1         45.9940   10.7974   -0.9105 H         1 OTA         0.2024
     20 H2         45.3307    9.3755   -0.4127 H         1 OTA         0.2024
     21 H3         46.9217   10.6119    1.1178 H         1 OTA         0.0921
     22 H4         45.4328    9.8589    1.7832 H         1 OTA         0.0921
     23 H5         44.4742   12.8382   -1.4122 H         1 OTA         0.0400
     24 H6         42.8862   12.7812   -0.5744 H         1 OTA         0.0400
     25 H7         43.1893   10.4871    0.0531 H         1 OTA         0.0829
     26 H8         43.6826   10.5879   -1.6712 H         1 OTA         0.0829
     27 H9         44.2212   16.0259    3.1288 H         1 OTA         0.2352
@<TRIPOS>BOND
     1    1    6 1  
     2    1    2 1  
     3    2    3 1  
     4    3    7 1  
     5    3    4 2  
     6    4    9 1  
     7    4    5 1  
     8    5    6 1  
     9    9   10 1  
    10    9    8 2  
    11    8   13 am 
    12    8    7 1  
    13   13   14 am 
    14   14   18 2  
    15   14   15 1  
    16   15   17 ar 
    17   15   16 ar 
    18   10   12 ar 
    19   10   11 ar 
    20    1   19 1  
    21    1   20 1  
    22    2   21 1  
    23    2   22 1  
    24    5   23 1  
    25    5   24 1  
    26    6   25 1  
    27    6   26 1  
    28   13   27 1  
@<TRIPOS>SUBSTRUCTURE
     1 OTA         1

