### 
### Created by X-TOOL on Mon Sep 10 21:12:47 2018
### 

@<TRIPOS>MOLECULE
1c8k_ligand
   49    52     1     0     0
SMALL
GAST_HUCK


@<TRIPOS>ATOM
      1 C1         43.6080   40.0770   27.8640 C.3       1 CPB        -0.0430
      2 N1         42.6230   39.6510   28.8790 N.4       1 CPB         0.2351
      3 C16        41.2240   39.6490   28.3510 C.3       1 CPB        -0.0305
      4 C15        40.1800   39.2250   29.4250 C.3       1 CPB        -0.0017
      5 C14        40.6120   37.8860   30.0840 C.3       1 CPB         0.0215
      6 C13        42.0980   37.9350   30.6030 C.3       1 CPB         0.1030
      7 C12        43.0260   38.3180   29.4190 C.3       1 CPB        -0.0040
      8 C8         39.5350   37.5130   31.1380 C.ar      1 CPB         0.0228
      9 C9         38.6990   36.4150   30.8150 C.ar      1 CPB         0.1322
     10 O1         38.8860   35.7310   29.5890 O.3       1 CPB        -0.2448
     11 C2         38.1580   34.6600   29.1780 C.2       1 CPB         0.1417
     12 C3         37.1540   34.1700   29.9490 C.2       1 CPB         0.0078
     13 C4         36.8480   34.7840   31.2610 C.2       1 CPB         0.0995
     14 O4         35.9610   34.3380   31.9540 O.2       1 CPB        -0.4249
     15 C10        37.6840   35.9780   31.7160 C.ar      1 CPB         0.0721
     16 C5         37.4860   36.6450   32.9650 C.ar      1 CPB         0.0869
     17 O5         36.5010   36.2430   33.8840 O.3       1 CPB        -0.3368
     18 C6         38.3120   37.7460   33.2850 C.ar      1 CPB        -0.0144
     19 C7         39.3360   38.1830   32.3920 C.ar      1 CPB         0.0802
     20 O7         40.1330   39.2620   32.7390 O.3       1 CPB        -0.3389
     21 C21        38.4970   34.0180   27.8170 C.ar      1 CPB         0.0440
     22 C22        38.9230   34.8060   26.6740 C.ar      1 CPB         0.0577
     23 CL1        39.0800   36.5310   26.7370 Cl        1 CPB        -0.0650
     24 C23        39.2310   34.1870   25.4410 C.ar      1 CPB        -0.0431
     25 C24        39.1330   32.7750   25.2970 C.ar      1 CPB        -0.0577
     26 C25        38.7090   31.9770   26.4170 C.ar      1 CPB        -0.0569
     27 C26        38.4000   32.5920   27.6640 C.ar      1 CPB        -0.0446
     28 O3         42.3800   38.9180   31.6090 O.3       1 CPB        -0.3849
     29 H1         43.3181   41.0587   27.4611 H         1 CPB         0.0778
     30 H2         43.6361   39.3397   27.0482 H         1 CPB         0.0778
     31 H3         44.6032   40.1500   28.3268 H         1 CPB         0.0778
     32 H4         42.6545   40.3143   29.6374 H         1 CPB         0.2031
     33 H5         41.1668   38.9458   27.5071 H         1 CPB         0.0816
     34 H6         40.9779   40.6624   28.0012 H         1 CPB         0.0816
     35 H7         39.1975   39.0960   28.9475 H         1 CPB         0.0335
     36 H8         40.1129   40.0061   30.1966 H         1 CPB         0.0335
     37 H9         40.5853   37.1064   29.3084 H         1 CPB         0.0427
     38 H10        42.3592   36.9396   30.9914 H         1 CPB         0.0665
     39 H11        44.0674   38.3646   29.7701 H         1 CPB         0.0841
     40 H12        42.9399   37.5603   28.6262 H         1 CPB         0.0841
     41 H13        36.5698   33.3197   29.6002 H         1 CPB         0.0418
     42 H14        35.6452   36.3033   33.4759 H         1 CPB         0.2482
     43 H15        38.1655   38.2672   34.2241 H         1 CPB         0.0388
     44 H16        40.7609   39.4264   32.0454 H         1 CPB         0.2468
     45 H17        39.5443   34.7930   24.5986 H         1 CPB         0.0633
     46 H18        39.3757   32.3041   24.3513 H         1 CPB         0.0647
     47 H19        38.6243   30.9015   26.3110 H         1 CPB         0.0629
     48 H20        38.0895   31.9805   28.5035 H         1 CPB         0.0661
     49 H21        41.8439   38.7486   32.3748 H         1 CPB         0.2102
@<TRIPOS>BOND
     1    1    2 1  
     2    2    3 1  
     3    2    7 1  
     4    3    4 1  
     5    4    5 1  
     6    5    6 1  
     7    5    8 1  
     8    6    7 1  
     9    6   28 1  
    10    8    9 ar 
    11    8   19 ar 
    12    9   10 1  
    13    9   15 ar 
    14   10   11 1  
    15   11   12 2  
    16   11   21 1  
    17   12   13 1  
    18   13   14 2  
    19   13   15 1  
    20   15   16 ar 
    21   16   17 1  
    22   16   18 ar 
    23   18   19 ar 
    24   19   20 1  
    25   21   22 ar 
    26   21   27 ar 
    27   22   23 1  
    28   22   24 ar 
    29   24   25 ar 
    30   25   26 ar 
    31   26   27 ar 
    32    1   29 1  
    33    1   30 1  
    34    1   31 1  
    35    2   32 1  
    36    3   33 1  
    37    3   34 1  
    38    4   35 1  
    39    4   36 1  
    40    5   37 1  
    41    6   38 1  
    42    7   39 1  
    43    7   40 1  
    44   12   41 1  
    45   17   42 1  
    46   18   43 1  
    47   20   44 1  
    48   24   45 1  
    49   25   46 1  
    50   26   47 1  
    51   27   48 1  
    52   28   49 1  
@<TRIPOS>SUBSTRUCTURE
     1 CPB         1

