### 
### Created by X-TOOL on Mon Sep 10 21:12:47 2018
### 

@<TRIPOS>MOLECULE
1c8l_ligand
   48    49     1     0     0
SMALL
GAST_HUCK


@<TRIPOS>ATOM
      1 C1         27.9840    2.2510   52.8030 C.ar      1 BIN        -0.0196
      2 C2         27.3740    3.6400   53.2040 C.ar      1 BIN         0.0418
      3 C3         27.5180    4.1850   54.5800 C.ar      1 BIN        -0.0556
      4 C4         28.2810    3.3460   55.5780 C.ar      1 BIN        -0.0692
      5 C5         28.8430    2.1180   55.2840 C.ar      1 BIN        -0.0693
      6 C6         28.7160    1.5580   53.9240 C.ar      1 BIN        -0.0591
      7 C7         27.8130    1.6960   51.2780 C.3       1 BIN         0.0376
      8 C8         26.9240    0.2420   51.2620 C.2       1 BIN         0.0508
      9 C9         29.9220    0.3260   50.5510 C.2       1 BIN         0.1090
     10 C11        27.5800   -1.0080   51.0400 C.2       1 BIN         0.0610
     11 C12        29.2470    1.6420   50.7020 C.2       1 BIN         0.0256
     12 C13        29.9120    3.0060   50.3170 C.2       1 BIN         0.0498
     13 C14        31.2670    0.2260   50.0340 C.2       1 BIN         0.0881
     14 C15        26.9550   -2.3850   50.9090 C.3       1 BIN        -0.0003
     15 C16        30.1650   -2.1880   53.0780 C.3       1 BIN        -0.0406
     16 C17        29.9110   -2.0780   51.5870 C.3       1 BIN         0.0457
     17 C18        25.3130    0.4070   51.4540 C.2       1 BIN         0.2179
     18 C19        23.3250    2.0490   51.2840 C.3       1 BIN         0.0791
     19 C20        23.1830    2.5150   52.7870 C.3       1 BIN        -0.0348
     20 C21        23.1540    3.1190   50.2240 C.3       1 BIN        -0.0348
     21 N10        29.1240   -0.9320   50.9800 N.pl3     1 BIN        -0.2506
     22 O3A        29.1510    3.9740   50.0270 O.co2     1 BIN        -0.5682
     23 O3B        31.1170    3.2400   50.2400 O.co2     1 BIN        -0.5682
     24 O4A        32.1510    0.5650   50.8990 O.co2     1 BIN        -0.5586
     25 O4B        31.4150   -0.1680   48.9280 O.co2     1 BIN        -0.5586
     26 O8A        24.6060   -0.4760   51.9310 O.2       1 BIN        -0.3934
     27 O8         24.8660    1.6380   51.1200 O.3       1 BIN        -0.2854
     28 CL2        26.5250    4.5890   52.1160 Cl        1 BIN        -0.0778
     29 H1         27.0935    5.1437   54.8553 H         1 BIN         0.0602
     30 H2         28.3946    3.7302   56.5853 H         1 BIN         0.0551
     31 H3         29.3760    1.5672   56.0505 H         1 BIN         0.0598
     32 H4         29.1738    0.5967   53.7204 H         1 BIN         0.0551
     33 H5         27.2395    2.4274   50.6897 H         1 BIN         0.0592
     34 H6         25.8600   -2.2978   50.9678 H         1 BIN         0.0467
     35 H7         27.3156   -3.0304   51.7235 H         1 BIN         0.0467
     36 H8         27.2362   -2.8248   49.9408 H         1 BIN         0.0467
     37 H9         30.7533   -3.0944   53.2838 H         1 BIN         0.0253
     38 H10        29.2042   -2.2458   53.6104 H         1 BIN         0.0253
     39 H11        30.7218   -1.3037   53.4213 H         1 BIN         0.0253
     40 H12        29.3835   -2.9988   51.2975 H         1 BIN         0.0570
     41 H13        30.9012   -2.0567   51.1084 H         1 BIN         0.0570
     42 H14        22.6409    1.2099   51.0896 H         1 BIN         0.0640
     43 H15        22.1430    2.8163   52.9807 H         1 BIN         0.0258
     44 H16        23.8523    3.3683   52.9711 H         1 BIN         0.0258
     45 H17        23.4548    1.6849   53.4555 H         1 BIN         0.0258
     46 H18        23.2753    2.6702   49.2271 H         1 BIN         0.0258
     47 H19        23.9126    3.9025   50.3681 H         1 BIN         0.0258
     48 H20        22.1501    3.5608   50.3075 H         1 BIN         0.0258
@<TRIPOS>BOND
     1    1    2 ar 
     2    1    6 ar 
     3    7    1 1  
     4    2    3 ar 
     5    2   28 1  
     6    3    4 ar 
     7    5    4 ar 
     8    6    5 ar 
     9    8    7 1  
    10    7   11 1  
    11    8   10 2  
    12   17    8 1  
    13   11    9 2  
    14    9   13 1  
    15   21    9 1  
    16   10   14 1  
    17   10   21 1  
    18   11   12 1  
    19   12   22 ar 
    20   12   23 ar 
    21   13   24 ar 
    22   13   25 ar 
    23   16   15 1  
    24   21   16 1  
    25   17   26 2  
    26   27   17 1  
    27   18   19 1  
    28   18   20 1  
    29   18   27 1  
    30    3   29 1  
    31    4   30 1  
    32    5   31 1  
    33    6   32 1  
    34    7   33 1  
    35   14   34 1  
    36   14   35 1  
    37   14   36 1  
    38   15   37 1  
    39   15   38 1  
    40   15   39 1  
    41   16   40 1  
    42   16   41 1  
    43   18   42 1  
    44   19   43 1  
    45   19   44 1  
    46   19   45 1  
    47   20   46 1  
    48   20   47 1  
    49   20   48 1  
@<TRIPOS>SUBSTRUCTURE
     1 BIN         1

