### 
### Created by X-TOOL on Mon Sep 10 21:12:46 2018
### 

@<TRIPOS>MOLECULE
1ca8_ligand
   72    74     1     0     0
SMALL
GAST_HUCK


@<TRIPOS>ATOM
      1 C          18.6280  -17.1000   26.1640 C.3       1 0KV         0.1181
      2 C1         19.8580  -16.2600   26.0600 C.ar      1 0KV        -0.0204
      3 C2         19.7060  -14.8910   26.2070 C.ar      1 0KV        -0.0587
      4 C3         20.8440  -14.0810   26.0400 C.ar      1 0KV        -0.0685
      5 C4         21.9840  -14.5750   25.4250 C.ar      1 0KV        -0.0687
      6 C5         22.0460  -15.9360   25.1200 C.ar      1 0KV        -0.0685
      7 C6         21.0700  -16.7860   25.6380 C.ar      1 0KV        -0.0587
      8 S          17.9370  -17.6440   24.6120 S.o2      1 0KV         0.0511
      9 O1S        16.6770  -18.1960   24.9690 O.2       1 0KV        -0.1532
     10 O2S        18.9040  -18.2950   23.7880 O.2       1 0KV        -0.1532
     11 N          17.5900  -16.3240   23.6630 N.am      1 0KV        -0.2281
     12 CA         18.5400  -15.6440   22.8780 C.3       1 0KV         0.1265
     13 CB         19.1600  -16.4120   21.7510 C.3       1 0KV        -0.0141
     14 CG         20.2190  -15.5760   21.0750 C.3       1 0KV        -0.0285
     15 C          17.9390  -14.3150   22.3400 C.2       1 0KV         0.2023
     16 CD         19.8340  -14.1580   20.7280 C.3       1 0KV         0.0367
     17 O          16.9630  -13.9360   22.9870 O.2       1 0KV        -0.3946
     18 N          18.6590  -13.6550   21.4610 N.am      1 0KV        -0.2529
     19 CA         18.0200  -12.3710   21.1560 C.3       1 0KV         0.1227
     20 C          16.6930  -12.8930   20.5090 C.2       1 0KV         0.1990
     21 O          16.8310  -13.7370   19.5700 O.2       1 0KV        -0.3948
     22 C2         12.3450  -14.4110   22.1290 C.3       1 0KV        -0.0193
     23 C3         12.6940  -13.8550   23.5410 C.3       1 0KV         0.0649
     24 N          15.9810  -11.6610   20.5400 N.am      1 0KV        -0.2800
     25 CA         14.7790  -11.5250   19.6560 C.3       1 0KV         0.0655
     26 C          14.9020  -10.9010   18.2600 C.3       1 0KV         0.0671
     27 O          15.8910  -11.0530   17.5180 O.3       1 0KV        -0.3927
     28 CB         13.5360  -11.0010   20.4130 C.3       1 0KV        -0.0217
     29 CZ         11.1630  -12.0680   24.7230 C.cat     1 0KV         0.2903
     30 NE         12.1640  -12.4480   23.7400 N.pl3     1 0KV        -0.2595
     31 C1         12.5240  -13.3060   21.0250 C.3       1 0KV        -0.0438
     32 CG         13.2930  -12.0500   21.5230 C.3       1 0KV        -0.0055
     33 CD         12.8270  -11.4250   22.8560 C.3       1 0KV         0.0677
     34 NH1        10.4650  -12.9970   25.3010 N.pl3     1 0KV        -0.2848
     35 NH2        10.9140  -10.8080   24.9300 N.pl3     1 0KV        -0.2848
     36 H1         17.8603  -16.5134   26.6898 H         1 0KV         0.0682
     37 H2         18.8765  -17.9932   26.7561 H         1 0KV         0.0682
     38 H3         18.7409  -14.4576   26.4432 H         1 0KV         0.0557
     39 H4         20.8293  -13.0575   26.3968 H         1 0KV         0.0599
     40 H5         22.8115  -13.9171   25.1855 H         1 0KV         0.0559
     41 H6         22.8390  -16.3249   24.4915 H         1 0KV         0.0599
     42 H7         21.2571  -17.8513   25.7105 H         1 0KV         0.0557
     43 H8         16.6468  -15.9921   23.6490 H         1 0KV         0.1703
     44 H9         19.3638  -15.3815   23.5580 H         1 0KV         0.0753
     45 H10        18.3823  -16.6755   21.0190 H         1 0KV         0.0309
     46 H11        19.6186  -17.3307   22.1456 H         1 0KV         0.0309
     47 H12        20.5012  -16.0843   20.1412 H         1 0KV         0.0287
     48 H13        21.0895  -15.5318   21.7460 H         1 0KV         0.0287
     49 H14        19.6137  -14.1139   19.6512 H         1 0KV         0.0524
     50 H15        20.6883  -13.5032   20.9546 H         1 0KV         0.0524
     51 H16        18.6146  -11.7740   20.4489 H         1 0KV         0.0765
     52 H17        17.8295  -11.7809   22.0645 H         1 0KV         0.0765
     53 H18        11.3002  -14.7551   22.1266 H         1 0KV         0.0299
     54 H19        13.0103  -15.2570   21.9016 H         1 0KV         0.0299
     55 H20        13.7876  -13.8432   23.6586 H         1 0KV         0.0690
     56 H21        12.2504  -14.5134   24.3024 H         1 0KV         0.0690
     57 H22        16.2735  -10.9105   21.1326 H         1 0KV         0.1855
     58 H23        14.5330  -12.5728   19.4290 H         1 0KV         0.0579
     59 H24        14.8028   -9.8155   18.4076 H         1 0KV         0.0580
     60 H25        14.0392  -11.2737   17.6885 H         1 0KV         0.0580
     61 H26        16.6661  -10.7174   17.9527 H         1 0KV         0.2095
     62 H27        12.6681  -10.9378   19.7401 H         1 0KV         0.0292
     63 H28        13.7344  -10.0110   20.8495 H         1 0KV         0.0292
     64 H29        11.5271  -12.9909   20.6831 H         1 0KV         0.0270
     65 H30        13.0797  -13.7428   20.1821 H         1 0KV         0.0270
     66 H31        14.2960  -12.4372   21.7557 H         1 0KV         0.0335
     67 H32        13.6999  -11.0100   23.3812 H         1 0KV         0.0693
     68 H33        12.1102  -10.6185   22.6419 H         1 0KV         0.0693
     69 H34         9.7515  -12.7455   25.9999 H         1 0KV         0.2615
     70 H35        10.6246  -13.9858   25.0608 H         1 0KV         0.2615
     71 H36        11.4807  -10.0872   24.4607 H         1 0KV         0.2615
     72 H37        10.1502  -10.5312   25.5632 H         1 0KV         0.2615
@<TRIPOS>BOND
     1    1    2 1  
     2    8    1 1  
     3    2    3 ar 
     4    2    7 ar 
     5    3    4 ar 
     6    4    5 ar 
     7    6    5 ar 
     8    7    6 ar 
     9    8    9 2  
    10    8   10 2  
    11   11    8 am 
    12   12   11 1  
    13   12   13 1  
    14   15   12 1  
    15   14   13 1  
    16   16   14 1  
    17   15   17 2  
    18   18   15 am 
    19   18   16 1  
    20   19   18 1  
    21   20   19 1  
    22   20   21 2  
    23   24   20 am 
    24   22   23 1  
    25   31   22 1  
    26   23   30 1  
    27   25   24 1  
    28   25   26 1  
    29   28   25 1  
    30   26   27 1  
    31   32   28 1  
    32   30   29 ar 
    33   29   34 ar 
    34   29   35 ar 
    35   30   33 1  
    36   31   32 1  
    37   32   33 1  
    38    1   36 1  
    39    1   37 1  
    40    3   38 1  
    41    4   39 1  
    42    5   40 1  
    43    6   41 1  
    44    7   42 1  
    45   11   43 1  
    46   12   44 1  
    47   13   45 1  
    48   13   46 1  
    49   14   47 1  
    50   14   48 1  
    51   16   49 1  
    52   16   50 1  
    53   19   51 1  
    54   19   52 1  
    55   22   53 1  
    56   22   54 1  
    57   23   55 1  
    58   23   56 1  
    59   24   57 1  
    60   25   58 1  
    61   26   59 1  
    62   26   60 1  
    63   27   61 1  
    64   28   62 1  
    65   28   63 1  
    66   31   64 1  
    67   31   65 1  
    68   32   66 1  
    69   33   67 1  
    70   33   68 1  
    71   34   69 1  
    72   34   70 1  
    73   35   71 1  
    74   35   72 1  
@<TRIPOS>SUBSTRUCTURE
     1 0KV         1

