### 
### Created by X-TOOL on Mon Sep 10 21:12:47 2018
### 

@<TRIPOS>MOLECULE
1caq_ligand
   64    68     1     0     0
SMALL
GAST_HUCK


@<TRIPOS>ATOM
      1 N1         16.9890    9.0060   17.9520 N.pl3     1 DPS        -0.3085
      2 C2         16.2400    8.6210   20.2690 C.ar      1 DPS        -0.0425
      3 C3         15.7820    7.7660   21.2490 C.ar      1 DPS        -0.0471
      4 C4         15.3750    6.4870   20.9090 C.ar      1 DPS         0.0948
      5 C5         15.3000    6.0830   19.5890 C.ar      1 DPS        -0.0471
      6 N7          8.6120    2.9830   20.4130 N.pl3     1 DPS        -0.2891
      7 C8         12.3680    4.9770   21.8300 C.3       1 DPS         0.0938
      8 C10        20.7400   12.9320   13.2940 C.ar      1 DPS        -0.0687
      9 C11        18.1680   10.7810   15.9970 C.3       1 DPS        -0.0038
     10 C12        21.2210   12.5320   14.5340 C.ar      1 DPS        -0.0686
     11 O1         15.7780    5.7560   23.3430 O.2       1 DPS        -0.1519
     12 O2         15.1780    4.0470   21.6730 O.2       1 DPS        -0.1519
     13 C1         16.3100    8.1960   18.9350 C.ar      1 DPS         0.0403
     14 C6         15.7830    6.9410   18.6100 C.ar      1 DPS        -0.0425
     15 S          15.0170    5.3500   22.1940 S.o2      1 DPS         0.0641
     16 C7         17.9670    9.3090   15.6520 C.3       1 DPS        -0.0206
     17 C13        18.5830   10.9320   17.4580 C.3       1 DPS        -0.0206
     18 C15        17.5660   10.2930   18.3870 C.3       1 DPS         0.0288
     19 C18        16.8540    8.7120   16.5100 C.3       1 DPS         0.0288
     20 C14        20.4150   11.8000   15.4050 C.ar      1 DPS        -0.0601
     21 C16        19.1110   11.4660   15.0470 C.ar      1 DPS        -0.0398
     22 C17        18.6440   11.8360   13.7820 C.ar      1 DPS        -0.0601
     23 C19        19.4500   12.5710   12.9120 C.ar      1 DPS        -0.0686
     24 N          13.4060    5.4880   22.7010 N.am      1 DPS        -0.2316
     25 C20        11.2250    4.3780   22.6600 C.3       1 DPS        -0.0048
     26 C9         11.8860    6.0480   20.8650 C.2       1 DPS         0.0576
     27 O3         11.8320    7.2990   21.3820 O.co2     1 DPS        -0.5669
     28 O4         11.5670    5.7640   19.7590 O.co2     1 DPS        -0.5669
     29 C21         6.5640    6.1450   20.6610 C.ar      1 DPS        -0.0768
     30 C22         6.8650    4.8350   20.2560 C.ar      1 DPS        -0.0443
     31 C23         8.0340    4.2350   20.6570 C.ar      1 DPS         0.0603
     32 C24         8.8960    4.9350   21.5390 C.ar      1 DPS        -0.0214
     33 C25         8.5990    6.2190   21.9380 C.ar      1 DPS        -0.0747
     34 C26         7.4230    6.8330   21.5150 C.ar      1 DPS        -0.0792
     35 C27         9.7990    2.8810   21.0680 C.2       1 DPS         0.0166
     36 C28        10.0320    4.0640   21.7800 C.2       1 DPS        -0.0428
     37 H1         16.5475    9.6268   20.5314 H         1 DPS         0.0515
     38 H2         15.7407    8.0938   22.2814 H         1 DPS         0.0602
     39 H3         14.8751    5.1213   19.3251 H         1 DPS         0.0602
     40 H4          8.1982    2.2468   19.8233 H         1 DPS         0.2216
     41 H5         12.8026    4.1647   21.2290 H         1 DPS         0.0694
     42 H6         21.3628   13.5198   12.6295 H         1 DPS         0.0559
     43 H7         17.1925   11.2769   15.8858 H         1 DPS         0.0462
     44 H8         22.2319   12.7912   14.8272 H         1 DPS         0.0599
     45 H9         15.7512    6.6320   17.5714 H         1 DPS         0.0515
     46 H10        18.9025    8.7613   15.8385 H         1 DPS         0.0309
     47 H11        17.6947    9.2188   14.5901 H         1 DPS         0.0309
     48 H12        19.5588   10.4462   17.6057 H         1 DPS         0.0309
     49 H13        18.6660   12.0022   17.6985 H         1 DPS         0.0309
     50 H14        18.0581   10.1271   19.3567 H         1 DPS         0.0515
     51 H15        16.7367   11.0045   18.5136 H         1 DPS         0.0515
     52 H16        15.8926    9.1176   16.1620 H         1 DPS         0.0515
     53 H17        16.8612    7.6202   16.3766 H         1 DPS         0.0515
     54 H18        20.8058   11.4888   16.3670 H         1 DPS         0.0557
     55 H19        17.6452   11.5488   13.4740 H         1 DPS         0.0557
     56 H20        19.0721   12.8612   11.9383 H         1 DPS         0.0599
     57 H21        13.1782    5.9109   23.5781 H         1 DPS         0.1697
     58 H22        10.9233    5.0999   23.4332 H         1 DPS         0.0386
     59 H23        11.5739    3.4515   23.1394 H         1 DPS         0.0386
     60 H24         5.6581    6.6238   20.3072 H         1 DPS         0.0530
     61 H25         6.1710    4.2937   19.6232 H         1 DPS         0.0541
     62 H26         9.2843    6.7547   22.5849 H         1 DPS         0.0540
     63 H27         7.1786    7.8356   21.8467 H         1 DPS         0.0510
     64 H28        10.4623    2.0176   21.0429 H         1 DPS         0.0795
@<TRIPOS>BOND
     1   26   28 ar 
     2    7   26 1  
     3   26   27 ar 
     4    7   25 1  
     5   25   36 1  
     6   36   35 2  
     7   36   32 1  
     8   32   33 ar 
     9   32   31 ar 
    10   31    6 1  
    11   31   30 ar 
    12   30   29 ar 
    13   34   29 ar 
    14   33   34 ar 
    15   35    6 1  
    16    1   19 1  
    17    1   18 1  
    18   13    1 1  
    19   14   13 ar 
    20    2   13 ar 
    21    3    2 ar 
    22    4    3 ar 
    23   15    4 1  
    24    4    5 ar 
    25    5   14 ar 
    26   15   11 2  
    27   15   12 2  
    28   24   15 am 
    29   18   17 1  
    30   17    9 1  
    31   16    9 1  
    32    9   21 1  
    33   21   22 ar 
    34   21   20 ar 
    35   20   10 ar 
    36   10    8 ar 
    37   23    8 ar 
    38   22   23 ar 
    39   19   16 1  
    40   24    7 1  
    41    2   37 1  
    42    3   38 1  
    43    5   39 1  
    44    6   40 1  
    45    7   41 1  
    46    8   42 1  
    47    9   43 1  
    48   10   44 1  
    49   14   45 1  
    50   16   46 1  
    51   16   47 1  
    52   17   48 1  
    53   17   49 1  
    54   18   50 1  
    55   18   51 1  
    56   19   52 1  
    57   19   53 1  
    58   20   54 1  
    59   22   55 1  
    60   23   56 1  
    61   24   57 1  
    62   25   58 1  
    63   25   59 1  
    64   29   60 1  
    65   30   61 1  
    66   33   62 1  
    67   34   63 1  
    68   35   64 1  
@<TRIPOS>SUBSTRUCTURE
     1 DPS         1

