### 
### Created by X-TOOL on Mon Sep 10 21:12:45 2018
### 

@<TRIPOS>MOLECULE
1cbr_ligand
   49    49     1     0     0
SMALL
GAST_HUCK


@<TRIPOS>ATOM
      1 C1          5.0920    2.4270  -10.7940 C.3       1 REA        -0.0859
      2 C2          6.0790    1.2390  -10.8790 C.3       1 REA        -0.0979
      3 C3          7.4570    1.5880  -11.3400 C.3       1 REA        -0.0377
      4 C4          8.1090    2.6160  -10.4790 C.3       1 REA         0.0374
      5 C5          7.1710    3.7700  -10.1040 C.2       1 REA         0.0256
      6 C6          5.8090    3.6640  -10.1590 C.2       1 REA        -0.0437
      7 C7          4.8670    4.7410   -9.7870 C.2       1 REA        -0.0588
      8 C8          5.0090    5.6850   -8.8490 C.2       1 REA        -0.0502
      9 C9          4.0490    6.7120   -8.5120 C.2       1 REA        -0.0405
     10 C10         4.3830    7.6020   -7.5550 C.2       1 REA        -0.0599
     11 C11         3.5130    8.6700   -7.1050 C.2       1 REA        -0.0707
     12 C12         3.9620    9.5090   -6.1670 C.2       1 REA        -0.0643
     13 C13         3.1640   10.5920   -5.6370 C.2       1 REA        -0.0561
     14 C14         3.7030   11.3990   -4.6890 C.2       1 REA        -0.0506
     15 C15         3.0710   12.5430   -4.0160 C.2       1 REA         0.0296
     16 C16         3.9070    2.0000   -9.9190 C.3       1 REA        -0.1147
     17 C17         4.5820    2.7980  -12.2130 C.3       1 REA        -0.1147
     18 C18         7.9800    4.9390   -9.5360 C.3       1 REA         0.0277
     19 C19         2.7160    6.8010   -9.2660 C.3       1 REA        -0.0264
     20 C20         1.7300   10.7780   -6.1620 C.3       1 REA        -0.0316
     21 O1          2.5240   13.4330   -4.7040 O.co2     1 REA        -0.5736
     22 O2          3.0900   12.6020   -2.7660 O.co2     1 REA        -0.5736
     23 H1          5.6628    0.5003  -11.5797 H         1 REA         0.0079
     24 H2          6.1586    0.7905   -9.8778 H         1 REA         0.0079
     25 H3          7.3965    1.9765  -12.3673 H         1 REA         0.0309
     26 H4          8.0733    0.6769  -11.3282 H         1 REA         0.0309
     27 H5          8.9730    3.0290  -11.0202 H         1 REA         0.0731
     28 H6          8.4536    2.1305   -9.5541 H         1 REA         0.0731
     29 H7          3.9353    4.7700  -10.3501 H         1 REA         0.0700
     30 H8          5.9398    5.6789   -8.2837 H         1 REA         0.0582
     31 H9          5.3651    7.5126   -7.0930 H         1 REA         0.0490
     32 H10         2.5140    8.7864   -7.5226 H         1 REA         0.0644
     33 H11         4.9725    9.3712   -5.7852 H         1 REA         0.0493
     34 H12         4.7256   11.1723   -4.3911 H         1 REA         0.0350
     35 H13         3.1893    2.8302   -9.8432 H         1 REA         0.0039
     36 H14         4.2693    1.7357   -8.9146 H         1 REA         0.0039
     37 H15         3.4124    1.1280  -10.3717 H         1 REA         0.0039
     38 H16         5.4325    3.1041  -12.8399 H         1 REA         0.0039
     39 H17         3.8636    3.6277  -12.1392 H         1 REA         0.0039
     40 H18         4.0887    1.9250  -12.6652 H         1 REA         0.0039
     41 H19         7.2992    5.7611   -9.2702 H         1 REA         0.0697
     42 H20         8.6994    5.2884  -10.2913 H         1 REA         0.0697
     43 H21         8.5226    4.6076   -8.6384 H         1 REA         0.0697
     44 H22         2.6523    5.9808   -9.9962 H         1 REA         0.0424
     45 H23         2.6558    7.7653   -9.7917 H         1 REA         0.0424
     46 H24         1.8841    6.7206   -8.5508 H         1 REA         0.0424
     47 H25         1.5151   10.0113   -6.9209 H         1 REA         0.0404
     48 H26         1.6308   11.7769   -6.6117 H         1 REA         0.0404
     49 H27         1.0187   10.6787   -5.3288 H         1 REA         0.0404
@<TRIPOS>BOND
     1    1    2 1  
     2    1    6 1  
     3    1   16 1  
     4    1   17 1  
     5    2    3 1  
     6    3    4 1  
     7    4    5 1  
     8    5    6 2  
     9    5   18 1  
    10    6    7 1  
    11    7    8 2  
    12    8    9 1  
    13    9   10 2  
    14    9   19 1  
    15   10   11 1  
    16   11   12 2  
    17   12   13 1  
    18   13   14 2  
    19   13   20 1  
    20   14   15 1  
    21   15   21 ar 
    22   15   22 ar 
    23    2   23 1  
    24    2   24 1  
    25    3   25 1  
    26    3   26 1  
    27    4   27 1  
    28    4   28 1  
    29    7   29 1  
    30    8   30 1  
    31   10   31 1  
    32   11   32 1  
    33   12   33 1  
    34   14   34 1  
    35   16   35 1  
    36   16   36 1  
    37   16   37 1  
    38   17   38 1  
    39   17   39 1  
    40   17   40 1  
    41   18   41 1  
    42   18   42 1  
    43   18   43 1  
    44   19   44 1  
    45   19   45 1  
    46   19   46 1  
    47   20   47 1  
    48   20   48 1  
    49   20   49 1  
@<TRIPOS>SUBSTRUCTURE
     1 REA         1

