### 
### Created by X-TOOL on Mon Sep 10 21:12:45 2018
### 

@<TRIPOS>MOLECULE
1cbx_ligand
   25    25     1     0     0
SMALL
GAST_HUCK


@<TRIPOS>ATOM
      1 C1         -3.1400   29.2320   -6.2390 C.2       1 BZS         0.0368
      2 C2         -2.9080   30.4600   -7.1040 C.3       1 BZS         0.0164
      3 CA         -2.4310   29.9480   -8.4960 C.3       1 BZS         0.0328
      4 C          -0.8810   29.5390   -8.4040 C.2       1 BZS         0.0414
      5 CB         -2.4990   31.1490   -9.4890 C.3       1 BZS        -0.0032
      6 CG         -2.3840   30.3750  -10.8520 C.ar      1 BZS        -0.0410
      7 CD1        -1.1270   30.1830  -11.4430 C.ar      1 BZS        -0.0602
      8 CD2        -3.5270   29.9620  -11.5680 C.ar      1 BZS        -0.0602
      9 CE1        -1.0840   29.5700  -12.7240 C.ar      1 BZS        -0.0686
     10 CE2        -3.4510   29.3590  -12.7630 C.ar      1 BZS        -0.0686
     11 CZ         -2.2380   29.2010  -13.3510 C.ar      1 BZS        -0.0687
     12 O1         -2.1330   28.7490   -5.8540 O.co2     1 BZS        -0.5689
     13 O2         -4.2260   28.7800   -5.9400 O.co2     1 BZS        -0.5689
     14 O3         -0.4790   28.3510   -8.8140 O.co2     1 BZS        -0.5684
     15 O4         -0.1130   30.3680   -7.8260 O.co2     1 BZS        -0.5684
     16 H1         -2.1369   31.1011   -6.6520 H         1 BZS         0.0453
     17 H2         -3.8427   31.0301   -7.2104 H         1 BZS         0.0453
     18 H3         -3.0478   29.1038   -8.8378 H         1 BZS         0.0506
     19 H4         -1.6623   31.8481   -9.3436 H         1 BZS         0.0448
     20 H5         -3.4508   31.6942   -9.4072 H         1 BZS         0.0448
     21 H6         -0.2183   30.4920  -10.9393 H         1 BZS         0.0557
     22 H7         -4.5049   30.1391  -11.1352 H         1 BZS         0.0557
     23 H8         -0.1289   29.3945  -13.2058 H         1 BZS         0.0599
     24 H9         -4.3487   29.0015  -13.2543 H         1 BZS         0.0599
     25 H10        -2.1848   28.7705  -14.3444 H         1 BZS         0.0559
@<TRIPOS>BOND
     1    1    2 1  
     2    1   12 ar 
     3    1   13 ar 
     4    2    3 1  
     5    3    4 1  
     6    3    5 1  
     7    4   14 ar 
     8    4   15 ar 
     9    5    6 1  
    10    6    7 ar 
    11    6    8 ar 
    12    7    9 ar 
    13    8   10 ar 
    14    9   11 ar 
    15   10   11 ar 
    16    2   16 1  
    17    2   17 1  
    18    3   18 1  
    19    5   19 1  
    20    5   20 1  
    21    7   21 1  
    22    8   22 1  
    23    9   23 1  
    24   10   24 1  
    25   11   25 1  
@<TRIPOS>SUBSTRUCTURE
     1 BZS         1

