### 
### Created by X-TOOL on Mon Sep 10 21:12:46 2018
### 

@<TRIPOS>MOLECULE
1ce5_ligand
   18    18     1     0     0
SMALL
GAST_HUCK


@<TRIPOS>ATOM
      1 C1         12.1120   28.6310   26.2150 C.ar      1 BEN         0.0260
      2 C2         11.4070   27.9480   27.3430 C.ar      1 BEN        -0.0565
      3 C3         11.2570   28.5920   28.6550 C.ar      1 BEN        -0.0618
      4 C4         11.7440   29.9650   28.8500 C.ar      1 BEN        -0.0618
      5 C5         12.3900   30.6870   27.7570 C.ar      1 BEN        -0.0618
      6 C6         12.6160   30.0160   26.4740 C.ar      1 BEN        -0.0565
      7 C          12.3530   27.9680   24.9490 C.cat     1 BEN         0.2356
      8 N1         12.7630   28.6000   23.8250 N.pl3     1 BEN        -0.2721
      9 N2         12.1920   26.6400   24.7490 N.pl3     1 BEN        -0.2721
     10 H1         10.9977   26.9561   27.1894 H         1 BEN         0.0617
     11 H2         10.7899   28.0577   29.4744 H         1 BEN         0.0618
     12 H3         11.6226   30.4461   29.8138 H         1 BEN         0.0618
     13 H4         12.7014   31.7162   27.8945 H         1 BEN         0.0618
     14 H5         13.1612   30.5352   25.6941 H         1 BEN         0.0617
     15 H6         12.9146   28.0637   22.9588 H         1 BEN         0.3181
     16 H7         12.9235   29.6174   23.8356 H         1 BEN         0.3181
     17 H8         11.8821   26.0363   25.5239 H         1 BEN         0.3181
     18 H9         12.3793   26.2324   23.8218 H         1 BEN         0.3181
@<TRIPOS>BOND
     1    1    7 1  
     2    1    6 ar 
     3    1    2 ar 
     4    2    3 ar 
     5    3    4 ar 
     6    4    5 ar 
     7    5    6 ar 
     8    7    9 ar 
     9    7    8 ar 
    10    2   10 1  
    11    3   11 1  
    12    4   12 1  
    13    5   13 1  
    14    6   14 1  
    15    8   15 1  
    16    8   16 1  
    17    9   17 1  
    18    9   18 1  
@<TRIPOS>SUBSTRUCTURE
     1 BEN         1

