### 
### Created by X-TOOL on Fri Nov 18 12:02:59 2016
### 

@<TRIPOS>MOLECULE
1cea_ligand
   22    21     1     0     0
SMALL
GAST_HUCK


@<TRIPOS>ATOM
      1 C1         37.1580    4.4210  -30.0460 C.2       1 ACA         0.0348
      2 O1         38.1450    3.6840  -30.2690 O.co2     1 ACA        -0.5690
      3 O2         36.9190    5.6690  -30.0140 O.co2     1 ACA        -0.5690
      4 C2         35.9070    3.5120  -29.7010 C.3       1 ACA         0.0002
      5 C3         35.4640    3.0680  -31.0940 C.3       1 ACA        -0.0413
      6 C4         33.9160    2.9280  -31.0900 C.3       1 ACA        -0.0468
      7 C5         33.5780    1.4560  -30.8870 C.3       1 ACA        -0.0125
      8 C6         32.3200    1.0240  -31.4940 C.3       1 ACA        -0.0354
      9 N6         32.4130    0.6400  -32.9180 N.4       1 ACA         0.2185
     10 H1         35.1193    4.0875  -29.1927 H         1 ACA         0.0430
     11 H2         36.1938    2.6527  -29.0771 H         1 ACA         0.0430
     12 H3         35.9247    2.1000  -31.3403 H         1 ACA         0.0283
     13 H4         35.7680    3.8187  -31.8383 H         1 ACA         0.0283
     14 H5         33.5070    3.2762  -32.0499 H         1 ACA         0.0268
     15 H6         33.4890    3.5256  -30.2711 H         1 ACA         0.0268
     16 H7         33.5188    1.2650  -29.8053 H         1 ACA         0.0317
     17 H8         34.3909    0.8556  -31.3214 H         1 ACA         0.0317
     18 H9         31.5990    1.8505  -31.4099 H         1 ACA         0.0813
     19 H10        31.9495    0.1554  -30.9299 H         1 ACA         0.0813
     20 H11        31.5040    0.3580  -33.2500 H         1 ACA         0.1994
     21 H12        33.0598   -0.1267  -33.0177 H         1 ACA         0.1994
     22 H13        32.7386    1.4267  -33.4576 H         1 ACA         0.1994
@<TRIPOS>BOND
     1    1    2 ar 
     2    1    3 ar 
     3    1    4 1  
     4    4    5 1  
     5    5    6 1  
     6    6    7 1  
     7    7    8 1  
     8    8    9 1  
     9    4   10 1  
    10    4   11 1  
    11    5   12 1  
    12    5   13 1  
    13    6   14 1  
    14    6   15 1  
    15    7   16 1  
    16    7   17 1  
    17    8   18 1  
    18    8   19 1  
    19    9   20 1  
    20    9   21 1  
    21    9   22 1  
@<TRIPOS>SUBSTRUCTURE
     1 ACA         1

