### 
### Created by X-TOOL on Mon Sep 10 21:12:46 2018
### 

@<TRIPOS>MOLECULE
1cet_ligand
   49    50     1     0     0
SMALL
GAST_HUCK


@<TRIPOS>ATOM
      1 N1         35.7010   11.6500   16.1060 N.ar      1 CLQ        -0.3210
      2 C1         35.1830   10.5030   16.5910 C.ar      1 CLQ        -0.0108
      3 C2         34.8220   10.3740   17.9260 C.ar      1 CLQ        -0.0172
      4 C3         35.0150   11.4690   18.8760 C.ar      1 CLQ         0.0724
      5 C4         35.5920   12.7270   18.3580 C.ar      1 CLQ         0.0314
      6 C5         35.8420   13.9310   19.1500 C.ar      1 CLQ        -0.0464
      7 C6         36.3770   15.0900   18.5720 C.ar      1 CLQ        -0.0450
      8 C7         36.6750   15.0930   17.1700 C.ar      1 CLQ         0.0430
      9 C8         36.4550   13.9680   16.3590 C.ar      1 CLQ        -0.0318
     10 C9         35.9160   12.7830   16.9300 C.ar      1 CLQ         0.0317
     11 N2         34.6720   11.3700   20.1980 N.pl3     1 CLQ        -0.3056
     12 C10        34.2140   10.1460   20.9380 C.3       1 CLQ         0.0378
     13 C11        35.3120    9.0730   20.8840 C.3       1 CLQ        -0.0250
     14 C12        36.6190    9.3990   21.5830 C.3       1 CLQ        -0.0104
     15 C13        37.7060    8.4520   21.0990 C.3       1 CLQ        -0.0318
     16 N3         37.4150    7.0040   21.3790 N.4       1 CLQ         0.2348
     17 C14        38.2660    6.0490   20.5130 C.3       1 CLQ        -0.0348
     18 C15        38.0790    4.5480   20.7070 C.3       1 CLQ        -0.0245
     19 C16        37.3140    6.6910   22.8460 C.3       1 CLQ        -0.0348
     20 C17        38.6200    6.5420   23.5540 C.3       1 CLQ        -0.0245
     21 C18        33.8020   10.5100   22.3570 C.3       1 CLQ        -0.0416
     22 CL         37.2970   16.5300   16.4670 Cl        1 CLQ        -0.0673
     23 H1         35.0450    9.6610   15.9224 H         1 CLQ         0.0803
     24 H2         34.3882    9.4424   18.2709 H         1 CLQ         0.0543
     25 H3         35.6080   13.9266   20.2084 H         1 CLQ         0.0658
     26 H4         36.5627   15.9708   19.1759 H         1 CLQ         0.0614
     27 H5         36.6950   14.0030   15.3025 H         1 CLQ         0.0618
     28 H6         34.7356   12.2373   20.7500 H         1 CLQ         0.1854
     29 H7         33.3268    9.7442   20.4266 H         1 CLQ         0.0558
     30 H8         35.5393    8.8817   19.8249 H         1 CLQ         0.0290
     31 H9         34.9076    8.1589   21.3432 H         1 CLQ         0.0290
     32 H10        36.4914    9.2851   22.6696 H         1 CLQ         0.0318
     33 H11        36.9080   10.4354   21.3543 H         1 CLQ         0.0318
     34 H12        38.6481    8.7199   21.5996 H         1 CLQ         0.0814
     35 H13        37.8191    8.5796   20.0123 H         1 CLQ         0.0814
     36 H14        36.4761    6.8640   21.0400 H         1 CLQ         0.2033
     37 H15        39.3227    6.2760   20.7176 H         1 CLQ         0.0812
     38 H16        38.0400    6.2733   19.4601 H         1 CLQ         0.0812
     39 H17        38.7488    4.0039   20.0249 H         1 CLQ         0.0281
     40 H18        37.0353    4.2773   20.4892 H         1 CLQ         0.0281
     41 H19        38.3180    4.2800   21.7467 H         1 CLQ         0.0281
     42 H20        36.7577    5.7484   22.9557 H         1 CLQ         0.0812
     43 H21        36.7550    7.5052   23.3303 H         1 CLQ         0.0812
     44 H22        38.4381    6.3155   24.6149 H         1 CLQ         0.0281
     45 H23        39.1907    7.4788   23.4717 H         1 CLQ         0.0281
     46 H24        39.1934    5.7220   23.0971 H         1 CLQ         0.0281
     47 H25        33.4694    9.6046   22.8859 H         1 CLQ         0.0252
     48 H26        32.9787   11.2388   22.3243 H         1 CLQ         0.0252
     49 H27        34.6600   10.9496   22.8866 H         1 CLQ         0.0252
@<TRIPOS>BOND
     1    1   10 ar 
     2    1    2 ar 
     3    2    3 ar 
     4    3    4 ar 
     5    4   11 1  
     6    4    5 ar 
     7    5   10 ar 
     8    5    6 ar 
     9    6    7 ar 
    10    7    8 ar 
    11    8    9 ar 
    12    9   10 ar 
    13   11   12 1  
    14   12   21 1  
    15   12   13 1  
    16   13   14 1  
    17   14   15 1  
    18   15   16 1  
    19   16   19 1  
    20   16   17 1  
    21   17   18 1  
    22   19   20 1  
    23    8   22 1  
    24    2   23 1  
    25    3   24 1  
    26    6   25 1  
    27    7   26 1  
    28    9   27 1  
    29   11   28 1  
    30   12   29 1  
    31   13   30 1  
    32   13   31 1  
    33   14   32 1  
    34   14   33 1  
    35   15   34 1  
    36   15   35 1  
    37   16   36 1  
    38   17   37 1  
    39   17   38 1  
    40   18   39 1  
    41   18   40 1  
    42   18   41 1  
    43   19   42 1  
    44   19   43 1  
    45   20   44 1  
    46   20   45 1  
    47   20   46 1  
    48   21   47 1  
    49   21   48 1  
    50   21   49 1  
@<TRIPOS>SUBSTRUCTURE
     1 CLQ         1

