### 
### Created by X-TOOL on Mon Sep 10 21:12:45 2018
### 

@<TRIPOS>MOLECULE
1cgl_ligand
   93    95     1     0     0
SMALL
GAST_HUCK


@<TRIPOS>ATOM
      1 C          29.6830   45.3880    1.2040 C.2       1 0ED         0.3216
      2 O1         29.6440   45.4640    2.4450 O.2       1 0ED        -0.3774
      3 O2         30.0780   46.3940    0.3160 O.3       1 0ED        -0.2507
      4 C1'        30.6030   47.6530    0.7460 C.3       1 0ED         0.1113
      5 C1         31.9180   47.4290    1.4500 C.ar      1 0ED        -0.0130
      6 C2         32.9890   46.8630    0.7660 C.ar      1 0ED        -0.0578
      7 C3         34.1630   46.5850    1.4340 C.ar      1 0ED        -0.0685
      8 C4         34.2280   46.9030    2.7900 C.ar      1 0ED        -0.0687
      9 C5         33.1780   47.5150    3.4670 C.ar      1 0ED        -0.0685
     10 C6         32.0330   47.7530    2.7930 C.ar      1 0ED        -0.0578
     11 N          29.3370   44.2710    0.6500 N.am      1 0ED        -0.2621
     12 CA         29.3740   44.1540   -0.8010 C.3       1 0ED         0.0395
     13 CB         29.2450   42.7180   -1.1400 C.3       1 0ED         0.0226
     14 CG         30.5770   41.9770   -1.0070 C.3       1 0ED         0.0340
     15 CD         31.5200   42.0330   -2.2490 C.2       1 0ED         0.0846
     16 OE1        31.8150   43.0020   -2.9320 O.co2     1 0ED        -0.5643
     17 OE2        31.9890   40.8170   -2.6590 O.co2     1 0ED        -0.5643
     18 N          30.1420   40.5960   -0.7300 N.4       1 0ED         0.2599
     19 CA         29.4570   39.7430   -1.7960 C.3       1 0ED         0.0686
     20 C          28.0090   39.6850   -1.3350 C.2       1 0ED         0.2269
     21 O          27.7410   39.7360   -0.1160 O.2       1 0ED        -0.3907
     22 CB         30.1810   38.3640   -1.8290 C.3       1 0ED         0.0103
     23 CG         29.7670   37.2800   -2.8150 C.3       1 0ED        -0.0394
     24 CD1        30.0320   37.6930   -4.2710 C.3       1 0ED        -0.0623
     25 CD2        30.3720   35.9000   -2.4850 C.3       1 0ED        -0.0623
     26 N          27.0850   39.5910   -2.3230 N.am      1 0ED        -0.2592
     27 CA         25.6380   39.3850   -2.0580 C.3       1 0ED         0.1404
     28 C          25.2620   37.9340   -2.4320 C.2       1 0ED         0.2039
     29 O          25.7440   37.3740   -3.3770 O.2       1 0ED        -0.3943
     30 CB         24.7710   40.3870   -2.8840 C.3       1 0ED         0.0214
     31 CG         24.8660   41.8600   -2.4630 C.ar      1 0ED        -0.0386
     32 CD1        24.1990   42.2970   -1.3430 C.ar      1 0ED        -0.0601
     33 CD2        25.8150   42.6850   -3.0750 C.ar      1 0ED        -0.0601
     34 CE1        24.5580   43.4970   -0.7690 C.ar      1 0ED        -0.0686
     35 CE2        26.1760   43.8730   -2.4760 C.ar      1 0ED        -0.0686
     36 CZ         25.5690   44.2730   -1.3150 C.ar      1 0ED        -0.0687
     37 O1         21.0320   39.1800   -5.5530 O.3       1 0ED        -0.3693
     38 C2         20.3680   39.3490   -4.3070 C.3       1 0ED         0.0878
     39 C3         21.1240   38.7690   -3.0680 C.3       1 0ED        -0.0078
     40 N4         21.6510   37.4420   -3.3850 N.4       1 0ED         0.2399
     41 C5         22.2890   37.3510   -4.7210 C.3       1 0ED        -0.0078
     42 C6         21.2520   37.8310   -5.7950 C.3       1 0ED         0.0878
     43 C1'        22.1130   36.5570   -2.2810 C.3       1 0ED        -0.0111
     44 C2'        23.6060   36.1880   -2.1840 C.3       1 0ED         0.0709
     45 N2'        24.3440   37.3620   -1.7460 N.am      1 0ED        -0.2798
     46 H1         29.8929   48.1309    1.4369 H         1 0ED         0.0776
     47 H2         30.7595   48.3036   -0.1270 H         1 0ED         0.0776
     48 H3         32.9008   46.6406   -0.2913 H         1 0ED         0.0557
     49 H4         35.0061   46.1348    0.9226 H         1 0ED         0.0599
     50 H5         35.1321   46.6640    3.3382 H         1 0ED         0.0559
     51 H6         33.2769   47.7938    4.5099 H         1 0ED         0.0599
     52 H7         31.1925   48.2033    3.3086 H         1 0ED         0.0557
     53 H8         29.0473   43.4964    1.2123 H         1 0ED         0.1867
     54 H9         30.3279   44.5452   -1.1843 H         1 0ED         0.0522
     55 H10        28.5411   44.7198   -1.2439 H         1 0ED         0.0522
     56 H11        28.8905   42.6282   -2.1774 H         1 0ED         0.0358
     57 H12        28.5126   42.2570   -0.4610 H         1 0ED         0.0358
     58 H13        31.1335   42.3814   -0.1486 H         1 0ED         0.1026
     59 H14        29.5001   40.6507    0.0453 H         1 0ED         0.2052
     60 H15        30.9668   40.0897   -0.4483 H         1 0ED         0.2052
     61 H16        29.5188   40.2111   -2.7895 H         1 0ED         0.1099
     62 H17        30.0714   37.9300   -0.8242 H         1 0ED         0.0348
     63 H18        31.2430   38.5738   -2.0240 H         1 0ED         0.0348
     64 H19        28.6770   37.1712   -2.7146 H         1 0ED         0.0299
     65 H20        29.7186   36.8821   -4.9450 H         1 0ED         0.0232
     66 H21        31.1059   37.8884   -4.4071 H         1 0ED         0.0232
     67 H22        29.4612   38.6041   -4.5034 H         1 0ED         0.0232
     68 H23        30.1580   35.6472   -1.4361 H         1 0ED         0.0232
     69 H24        31.4606   35.9303   -2.6400 H         1 0ED         0.0232
     70 H25        29.9289   35.1384   -3.1435 H         1 0ED         0.0232
     71 H26        27.3913   39.6636   -3.2722 H         1 0ED         0.1886
     72 H27        25.4431   39.5456   -0.9874 H         1 0ED         0.0823
     73 H28        23.7194   40.0775   -2.7929 H         1 0ED         0.0474
     74 H29        25.0843   40.3162   -3.9361 H         1 0ED         0.0474
     75 H30        23.3988   41.7035   -0.9159 H         1 0ED         0.0557
     76 H31        26.2649   42.3915   -4.0166 H         1 0ED         0.0557
     77 H32        24.0431   43.8390    0.1215 H         1 0ED         0.0599
     78 H33        26.9432   44.4930   -2.9255 H         1 0ED         0.0599
     79 H34        25.8771   45.1902   -0.8263 H         1 0ED         0.0559
     80 H35        19.3892   38.8514   -4.3724 H         1 0ED         0.0613
     81 H36        20.2212   40.4267   -4.1426 H         1 0ED         0.0613
     82 H37        20.4287   38.6924   -2.2191 H         1 0ED         0.0837
     83 H38        21.9556   39.4380   -2.8017 H         1 0ED         0.0837
     84 H39        20.7844   36.9700   -3.5904 H         1 0ED         0.2036
     85 H40        22.5801   36.3099   -4.9242 H         1 0ED         0.0837
     86 H41        23.1811   37.9938   -4.7519 H         1 0ED         0.0837
     87 H42        21.6586   37.6875   -6.8069 H         1 0ED         0.0613
     88 H43        20.3122   37.2683   -5.6943 H         1 0ED         0.0613
     89 H44        21.5547   35.6135   -2.3711 H         1 0ED         0.0834
     90 H45        21.8435   37.0539   -1.3374 H         1 0ED         0.0834
     91 H46        23.9732   35.8652   -3.1694 H         1 0ED         0.0573
     92 H47        23.7404   35.3730   -1.4576 H         1 0ED         0.0573
     93 H48        24.1202   37.7478   -0.8510 H         1 0ED         0.1853
@<TRIPOS>BOND
     1    1    2 2  
     2    1    3 1  
     3   11    1 am 
     4    3    4 1  
     5    4    5 1  
     6    5    6 ar 
     7    5   10 ar 
     8    6    7 ar 
     9    7    8 ar 
    10    9    8 ar 
    11   10    9 ar 
    12   12   11 1  
    13   13   12 1  
    14   14   13 1  
    15   14   15 1  
    16   18   14 1  
    17   15   16 ar 
    18   15   17 ar 
    19   19   18 1  
    20   20   19 1  
    21   19   22 1  
    22   20   21 2  
    23   26   20 am 
    24   22   23 1  
    25   23   24 1  
    26   23   25 1  
    27   27   26 1  
    28   28   27 1  
    29   27   30 1  
    30   28   29 2  
    31   45   28 am 
    32   30   31 1  
    33   31   32 ar 
    34   31   33 ar 
    35   32   34 ar 
    36   33   35 ar 
    37   34   36 ar 
    38   35   36 ar 
    39   38   37 1  
    40   42   37 1  
    41   39   38 1  
    42   40   39 1  
    43   40   41 1  
    44   43   40 1  
    45   41   42 1  
    46   44   43 1  
    47   44   45 1  
    48    4   46 1  
    49    4   47 1  
    50    6   48 1  
    51    7   49 1  
    52    8   50 1  
    53    9   51 1  
    54   10   52 1  
    55   11   53 1  
    56   12   54 1  
    57   12   55 1  
    58   13   56 1  
    59   13   57 1  
    60   14   58 1  
    61   18   59 1  
    62   18   60 1  
    63   19   61 1  
    64   22   62 1  
    65   22   63 1  
    66   23   64 1  
    67   24   65 1  
    68   24   66 1  
    69   24   67 1  
    70   25   68 1  
    71   25   69 1  
    72   25   70 1  
    73   26   71 1  
    74   27   72 1  
    75   30   73 1  
    76   30   74 1  
    77   32   75 1  
    78   33   76 1  
    79   34   77 1  
    80   35   78 1  
    81   36   79 1  
    82   38   80 1  
    83   38   81 1  
    84   39   82 1  
    85   39   83 1  
    86   40   84 1  
    87   41   85 1  
    88   41   86 1  
    89   42   87 1  
    90   42   88 1  
    91   43   89 1  
    92   43   90 1  
    93   44   91 1  
    94   44   92 1  
    95   45   93 1  
@<TRIPOS>SUBSTRUCTURE
     1 0ED         1

