### 
### Created by X-TOOL on Mon Sep 10 21:12:47 2018
### 

@<TRIPOS>MOLECULE
1ci7_ligand
   56    58     1     0     0
SMALL
GAST_HUCK


@<TRIPOS>ATOM
      1 N1        108.7850  -21.9730   56.2760 N.pl3     1 CB3        -0.2157
      2 C2        108.3030  -20.7440   56.6860 C.2       1 CB3         0.2266
      3 NA2       107.8000  -20.5760   57.9110 N.pl3     1 CB3        -0.2776
      4 N3        108.3720  -19.6830   55.8120 N.2       1 CB3        -0.2713
      5 C4        108.9460  -19.7890   54.5530 C.2       1 CB3         0.1443
      6 O4        108.8670  -18.6610   53.7420 O.2       1 CB3        -0.4090
      7 C4A       109.5540  -21.0380   54.1200 C.ar      1 CB3         0.0507
      8 C5        110.2490  -21.2560   52.8710 C.ar      1 CB3        -0.0483
      9 C6        110.8100  -22.5530   52.5190 C.ar      1 CB3        -0.0258
     10 C7        110.6480  -23.6520   53.4380 C.ar      1 CB3        -0.0614
     11 C8        109.9650  -23.4570   54.6990 C.ar      1 CB3        -0.0350
     12 C8A       109.4200  -22.1620   55.0600 C.ar      1 CB3         0.0889
     13 C9        111.7410  -22.7620   51.3740 C.3       1 CB3         0.0588
     14 N10       112.2980  -21.5610   50.6720 N.pl3     1 CB3        -0.2847
     15 C11       115.3200  -18.9300   52.1750 C.ar      1 CB3         0.0362
     16 C12       115.1670  -20.2440   52.7120 C.ar      1 CB3        -0.0535
     17 C13       114.1350  -21.1020   52.2100 C.ar      1 CB3        -0.0379
     18 C14       113.2260  -20.6700   51.1690 C.ar      1 CB3         0.0481
     19 C15       113.3410  -19.3070   50.6930 C.ar      1 CB3        -0.0379
     20 C16       114.3800  -18.4440   51.1920 C.ar      1 CB3        -0.0535
     21 C         116.5060  -18.1900   52.5250 C.2       1 CB3         0.1968
     22 O         117.1550  -18.4340   53.5420 O.2       1 CB3        -0.3908
     23 N         116.8680  -17.2210   51.6800 N.am      1 CB3        -0.2725
     24 CA        117.9660  -16.2330   51.7860 C.3       1 CB3         0.0951
     25 CB        118.4530  -15.7990   53.1710 C.3       1 CB3        -0.0064
     26 CG        119.3910  -16.7840   53.8630 C.3       1 CB3         0.0038
     27 CD        120.6500  -17.0690   53.0540 C.2       1 CB3         0.0350
     28 OE1       121.3090  -16.1040   52.5940 O.co2     1 CB3        -0.5690
     29 OE2       120.9880  -18.2620   52.8890 O.co2     1 CB3        -0.5690
     30 CT        117.6530  -15.0140   50.9180 C.2       1 CB3         0.0601
     31 O1        116.9600  -15.1920   49.8910 O.co2     1 CB3        -0.5666
     32 O2        118.1000  -13.8990   51.2680 O.co2     1 CB3        -0.5666
     33 CP1       111.9960  -21.5880   49.2190 C.3       1 CB3         0.0907
     34 CP2       111.5860  -20.2860   48.6760 C.1       1 CB3        -0.0813
     35 CP3       111.2430  -19.2650   48.1460 C.1       1 CB3        -0.1172
     36 H1        108.6668  -22.7827   56.9016 H         1 CB3         0.2318
     37 H2        107.4452  -19.6532   58.1999 H         1 CB3         0.1926
     38 H3        107.7667  -21.3691   58.5673 H         1 CB3         0.1926
     39 H4        110.3555  -20.4304   52.1767 H         1 CB3         0.0576
     40 H5        111.0400  -24.6300   53.1830 H         1 CB3         0.0572
     41 H6        109.8592  -24.2907   55.3836 H         1 CB3         0.0545
     42 H7        111.2010  -23.3555   50.6216 H         1 CB3         0.0661
     43 H8        112.5960  -23.3410   51.7532 H         1 CB3         0.0661
     44 H9        115.8292  -20.5914   53.4968 H         1 CB3         0.0636
     45 H10       114.0322  -22.1001   52.6201 H         1 CB3         0.0530
     46 H11       112.6396  -18.9337   49.9556 H         1 CB3         0.0530
     47 H12       114.4570  -17.4257   50.8285 H         1 CB3         0.0636
     48 H13       116.3138  -17.1523   50.8504 H         1 CB3         0.1864
     49 H14       118.8349  -16.7283   51.3282 H         1 CB3         0.0726
     50 H15       117.5716  -15.6581   53.8139 H         1 CB3         0.0323
     51 H16       118.9839  -14.8418   53.0616 H         1 CB3         0.0323
     52 H17       118.8528  -17.7303   54.0203 H         1 CB3         0.0432
     53 H18       119.6861  -16.3639   54.8358 H         1 CB3         0.0432
     54 H19       111.1821  -22.3077   49.0469 H         1 CB3         0.0655
     55 H20       112.8977  -21.9192   48.6831 H         1 CB3         0.0655
     56 H21       110.9413  -18.3668   47.6798 H         1 CB3         0.1229
@<TRIPOS>BOND
     1    1    2 1  
     2   12    1 1  
     3    2    3 1  
     4    4    2 2  
     5    5    4 1  
     6    5    6 2  
     7    7    5 1  
     8    8    7 ar 
     9    7   12 ar 
    10    9    8 ar 
    11    9   10 ar 
    12   13    9 1  
    13   10   11 ar 
    14   11   12 ar 
    15   14   13 1  
    16   18   14 1  
    17   14   33 1  
    18   16   15 ar 
    19   15   20 ar 
    20   15   21 1  
    21   17   16 ar 
    22   17   18 ar 
    23   18   19 ar 
    24   19   20 ar 
    25   21   22 2  
    26   21   23 am 
    27   23   24 1  
    28   24   25 1  
    29   24   30 1  
    30   25   26 1  
    31   26   27 1  
    32   27   28 ar 
    33   27   29 ar 
    34   30   31 ar 
    35   30   32 ar 
    36   33   34 1  
    37   34   35 3  
    38    1   36 1  
    39    3   37 1  
    40    3   38 1  
    41    8   39 1  
    42   10   40 1  
    43   11   41 1  
    44   13   42 1  
    45   13   43 1  
    46   16   44 1  
    47   17   45 1  
    48   19   46 1  
    49   20   47 1  
    50   23   48 1  
    51   24   49 1  
    52   25   50 1  
    53   25   51 1  
    54   26   52 1  
    55   26   53 1  
    56   33   54 1  
    57   33   55 1  
    58   35   56 1  
@<TRIPOS>SUBSTRUCTURE
     1 CB3         1

