### 
### Created by X-TOOL on Mon Sep 10 21:12:45 2018
### 

@<TRIPOS>MOLECULE
1cim_ligand
   30    31     1     0     0
SMALL
GAST_HUCK


@<TRIPOS>ATOM
      1 S1         -6.1700    3.6520   15.4750 S.3       1 PTS        -0.0031
      2 C2         -5.3260    2.2020   15.6860 C.2       1 PTS         0.1594
      3 C3         -3.9990    2.2880   15.2110 C.2       1 PTS        -0.0395
      4 C4         -3.7300    3.5680   14.6270 C.2       1 PTS         0.0112
      5 C5         -2.4180    3.9510   13.9900 C.3       1 PTS         0.0005
      6 C6         -2.3160    5.4870   13.7360 C.3       1 PTS         0.0189
      7 C7         -3.5540    6.0630   13.0530 C.3       1 PTS         0.0839
      8 S8         -4.8950    6.0150   14.2140 S.o2      1 PTS         0.0018
      9 C9         -4.8820    4.3900   14.6570 C.2       1 PTS         0.1413
     10 S10        -5.8890    0.9210   16.7120 S.o2      1 PTS         0.0744
     11 O11        -7.3130    0.7920   16.6570 O.2       1 PTS        -0.1500
     12 O12        -5.3050    1.0540   18.0130 O.2       1 PTS        -0.1500
     13 N13        -5.2850   -0.5820   16.0930 N.am      1 PTS        -0.2605
     14 N14        -2.2350    3.2710   12.6770 N.4       1 PTS         0.2297
     15 C15        -3.4120    7.5370   12.6810 C.3       1 PTS        -0.0423
     16 O16        -6.0970    6.3500   13.4880 O.2       1 PTS        -0.1710
     17 O17        -4.5140    6.8310   15.3300 O.2       1 PTS        -0.1710
     18 H1         -3.2706    1.4814   15.2801 H         1 PTS         0.0415
     19 H2         -1.6068    3.6473   14.6680 H         1 PTS         0.0966
     20 H3         -1.4418    5.6791   13.0966 H         1 PTS         0.0355
     21 H4         -2.1816    5.9939   14.7029 H         1 PTS         0.0355
     22 H5         -3.7852    5.4694   12.1562 H         1 PTS         0.0538
     23 H6         -5.5074   -1.4394   16.5571 H         1 PTS         0.1635
     24 H7         -4.7143   -0.5914   15.2719 H         1 PTS         0.1635
     25 H8         -2.2952    2.2729   12.8043 H         1 PTS         0.2007
     26 H9         -1.3309    3.5075   12.2992 H         1 PTS         0.2007
     27 H10        -2.9550    3.5724   12.0392 H         1 PTS         0.2007
     28 H11        -2.5927    7.6550   11.9566 H         1 PTS         0.0248
     29 H12        -3.1897    8.1235   13.5847 H         1 PTS         0.0248
     30 H13        -4.3512    7.8944   12.2337 H         1 PTS         0.0248
@<TRIPOS>BOND
     1    1    9 1  
     2    1    2 1  
     3    2   10 1  
     4    2    3 2  
     5    3    4 1  
     6    4    9 2  
     7    4    5 1  
     8    5   14 1  
     9    5    6 1  
    10    6    7 1  
    11    7   15 1  
    12    7    8 1  
    13    8   17 2  
    14    8   16 2  
    15    8    9 1  
    16   10   13 am 
    17   10   12 2  
    18   10   11 2  
    19    3   18 1  
    20    5   19 1  
    21    6   20 1  
    22    6   21 1  
    23    7   22 1  
    24   13   23 1  
    25   13   24 1  
    26   14   25 1  
    27   14   26 1  
    28   14   27 1  
    29   15   28 1  
    30   15   29 1  
    31   15   30 1  
@<TRIPOS>SUBSTRUCTURE
     1 PTS         1

