### 
### Created by X-TOOL on Mon Sep 10 21:12:47 2018
### 

@<TRIPOS>MOLECULE
1ciz_ligand
   64    68     1     0     0
SMALL
GAST_HUCK


@<TRIPOS>ATOM
      1 N1         25.4560   51.1780   -2.3930 N.pl3     1 DPS        -0.3085
      2 C2         27.6610   50.2570   -1.9370 C.ar      1 DPS        -0.0425
      3 C3         28.6140   49.7750   -1.0260 C.ar      1 DPS        -0.0471
      4 C4         28.2770   49.7360    0.3420 C.ar      1 DPS         0.0948
      5 C5         26.9820   50.0630    0.7910 C.ar      1 DPS        -0.0471
      6 N7         32.5770   44.3250    0.6390 N.pl3     1 DPS        -0.2891
      7 C8         29.0070   46.6580    2.0550 C.3       1 DPS         0.0938
      8 C10        20.9740   54.5130   -6.9150 C.ar      1 DPS        -0.0687
      9 C11        23.6950   52.6150   -4.2130 C.3       1 DPS        -0.0038
     10 C12        21.2610   55.1230   -5.6720 C.ar      1 DPS        -0.0686
     11 O1         28.9740   49.5700    2.8350 O.2       1 DPS        -0.1519
     12 O2         30.7430   49.9880    1.1760 O.2       1 DPS        -0.1519
     13 C1         26.3820   50.6810   -1.4920 C.ar      1 DPS         0.0403
     14 C6         26.0370   50.5360   -0.1270 C.ar      1 DPS        -0.0425
     15 S          29.5300   49.3390    1.5320 S.o2      1 DPS         0.0641
     16 C7         25.0140   52.0770   -4.7440 C.3       1 DPS        -0.0206
     17 C13        23.4350   52.6960   -2.7220 C.3       1 DPS        -0.0206
     18 C15        24.1100   51.5760   -1.9360 C.3       1 DPS         0.0288
     19 C18        25.7170   51.0580   -3.8440 C.3       1 DPS         0.0288
     20 C14        22.1510   54.4840   -4.7830 C.ar      1 DPS        -0.0601
     21 C16        22.7440   53.2500   -5.1440 C.ar      1 DPS        -0.0398
     22 C17        22.4440   52.6430   -6.3870 C.ar      1 DPS        -0.0601
     23 C19        21.5540   53.2750   -7.2800 C.ar      1 DPS        -0.0686
     24 N          29.9310   47.6640    1.5190 N.am      1 DPS        -0.2316
     25 C20        29.7920   45.5460    2.7920 C.3       1 DPS        -0.0048
     26 C9         28.1190   46.1410    0.9550 C.2       1 DPS         0.0576
     27 O3         26.8490   45.7360    1.2070 O.co2     1 DPS        -0.5669
     28 O4         28.5190   46.0620   -0.1600 O.co2     1 DPS        -0.5669
     29 C21        30.4940   41.4500   -0.6950 C.ar      1 DPS        -0.0768
     30 C22        31.6400   42.2650   -0.5800 C.ar      1 DPS        -0.0443
     31 C23        31.6280   43.3590    0.3160 C.ar      1 DPS         0.0603
     32 C24        30.4570   43.6210    1.0980 C.ar      1 DPS        -0.0214
     33 C25        29.3150   42.7940    0.9730 C.ar      1 DPS        -0.0747
     34 C26        29.3390   41.7040    0.0760 C.ar      1 DPS        -0.0792
     35 C27        32.0520   45.1740    1.5630 C.2       1 DPS         0.0166
     36 C28        30.7380   44.8020    1.8830 C.2       1 DPS        -0.0428
     37 H1         27.9048   50.3059   -2.9921 H         1 DPS         0.0515
     38 H2         29.5871   49.4404   -1.3669 H         1 DPS         0.0602
     39 H3         26.7202   49.9494    1.8368 H         1 DPS         0.0602
     40 H4         33.5253   44.3869    0.2417 H         1 DPS         0.2216
     41 H5         28.3602   47.1494    2.7968 H         1 DPS         0.0694
     42 H6         20.2953   55.0042   -7.6028 H         1 DPS         0.0559
     43 H7         23.2053   51.6335   -4.2956 H         1 DPS         0.0462
     44 H8         20.8034   56.0689   -5.4057 H         1 DPS         0.0599
     45 H9         25.0384   50.7919    0.2084 H         1 DPS         0.0515
     46 H10        25.6947   52.9290   -4.8882 H         1 DPS         0.0309
     47 H11        24.8186   51.5956   -5.7135 H         1 DPS         0.0309
     48 H12        23.8133   53.6605   -2.3524 H         1 DPS         0.0309
     49 H13        22.3497   52.6383   -2.5521 H         1 DPS         0.0309
     50 H14        24.1944   51.9043   -0.8895 H         1 DPS         0.0515
     51 H15        23.4612   50.6894   -1.9910 H         1 DPS         0.0515
     52 H16        25.3975   50.0541   -4.1605 H         1 DPS         0.0515
     53 H17        26.8007   51.1641   -3.9999 H         1 DPS         0.0515
     54 H18        22.3804   54.9370   -3.8253 H         1 DPS         0.0557
     55 H19        22.8973   51.6946   -6.6519 H         1 DPS         0.0557
     56 H20        21.3172   52.8181   -8.2341 H         1 DPS         0.0599
     57 H21        30.8089   47.3720    1.1395 H         1 DPS         0.1697
     58 H22        29.0732   44.8288    3.2149 H         1 DPS         0.0386
     59 H23        30.3733   46.0052    3.6051 H         1 DPS         0.0386
     60 H24        30.5005   40.6153   -1.3866 H         1 DPS         0.0530
     61 H25        32.5223   42.0543   -1.1735 H         1 DPS         0.0541
     62 H26        28.4278   42.9963    1.5621 H         1 DPS         0.0540
     63 H27        28.4707   41.0623   -0.0207 H         1 DPS         0.0510
     64 H28        32.5785   46.0241    1.9942 H         1 DPS         0.0795
@<TRIPOS>BOND
     1    1   19 1  
     2    1   18 1  
     3    1   13 1  
     4   13   14 ar 
     5   13    2 ar 
     6    2    3 ar 
     7    3    4 ar 
     8    4   15 1  
     9    4    5 ar 
    10    5   14 ar 
    11   15   11 2  
    12   15   12 2  
    13   15   24 am 
    14   24    7 1  
    15    7   25 1  
    16    7   26 1  
    17   26   28 ar 
    18   26   27 ar 
    19   25   36 1  
    20   36   35 2  
    21   36   32 1  
    22   32   33 ar 
    23   32   31 ar 
    24   31    6 1  
    25   31   30 ar 
    26   30   29 ar 
    27   29   34 ar 
    28   34   33 ar 
    29    6   35 1  
    30   18   17 1  
    31   17    9 1  
    32    9   16 1  
    33    9   21 1  
    34   21   22 ar 
    35   21   20 ar 
    36   20   10 ar 
    37   10    8 ar 
    38    8   23 ar 
    39   23   22 ar 
    40   16   19 1  
    41    2   37 1  
    42    3   38 1  
    43    5   39 1  
    44    6   40 1  
    45    7   41 1  
    46    8   42 1  
    47    9   43 1  
    48   10   44 1  
    49   14   45 1  
    50   16   46 1  
    51   16   47 1  
    52   17   48 1  
    53   17   49 1  
    54   18   50 1  
    55   18   51 1  
    56   19   52 1  
    57   19   53 1  
    58   20   54 1  
    59   22   55 1  
    60   23   56 1  
    61   24   57 1  
    62   25   58 1  
    63   25   59 1  
    64   29   60 1  
    65   30   61 1  
    66   33   62 1  
    67   34   63 1  
    68   35   64 1  
@<TRIPOS>SUBSTRUCTURE
     1 DPS         1

