### 
### Created by X-TOOL on Mon Sep 10 21:12:45 2018
### 

@<TRIPOS>MOLECULE
1ckb_ligand
  124   128     1     0     0
SMALL
GAST_HUCK


@<TRIPOS>ATOM
      1 N         122.0740  139.0660   17.8570 N.4       1 PRO         0.2461
      2 CA        121.0060  138.0680   17.8280 C.3       1 PRO         0.0671
      3 C         121.6070  136.7390   17.4500 C.2       1 PRO         0.2293
      4 O         122.7370  136.6690   16.9810 O.2       1 PRO        -0.3905
      5 CB        120.0900  138.5730   16.7030 C.3       1 PRO         0.0127
      6 CG        120.3690  139.9990   16.6300 C.3       1 PRO        -0.0053
      7 CD        121.8590  140.0630   16.8000 C.3       1 PRO        -0.0313
      8 N         120.8470  135.6590   17.6310 N.am      1 PRO        -0.2471
      9 CA        121.3860  134.3500   17.2820 C.3       1 PRO         0.1341
     10 C         121.5310  134.1080   15.7710 C.2       1 PRO         0.2066
     11 O         121.0600  134.9020   14.9430 O.2       1 PRO        -0.3942
     12 CB        120.3980  133.3910   17.9560 C.3       1 PRO        -0.0104
     13 CG        119.1260  134.1790   18.0700 C.3       1 PRO        -0.0281
     14 CD        119.5840  135.5510   18.3790 C.3       1 PRO         0.0371
     15 N         122.3080  133.0780   15.3940 N.am      1 PRO        -0.2498
     16 CA        122.4580  132.8060   13.9640 C.3       1 PRO         0.1338
     17 C         121.0980  132.4070   13.3900 C.2       1 PRO         0.2041
     18 O         120.2980  131.7460   14.0600 O.2       1 PRO        -0.3944
     19 CB        123.4680  131.6450   13.9260 C.3       1 PRO        -0.0104
     20 CG        123.4260  131.0570   15.2720 C.3       1 PRO        -0.0281
     21 CD        123.1980  132.2200   16.1960 C.3       1 PRO         0.0369
     22 N         120.7860  132.9240   12.2130 N.am      1 VAL        -0.2635
     23 CA        119.5260  132.5870   11.5830 C.3       1 VAL         0.1334
     24 C         119.8340  131.2480   10.9460 C.2       1 VAL         0.2066
     25 O         120.7450  131.1410   10.1140 O.2       1 VAL        -0.3942
     26 CB        119.0830  133.6180   10.5140 C.3       1 VAL        -0.0062
     27 CG1       117.7510  133.2110    9.9380 C.3       1 VAL        -0.0584
     28 CG2       118.9250  134.9820   11.1210 C.3       1 VAL        -0.0584
     29 N         119.0800  130.2030   11.3320 N.am      1 PRO        -0.2498
     30 CA        119.2720  128.8400   10.8110 C.3       1 PRO         0.1340
     31 C         119.0650  128.6750    9.3100 C.2       1 PRO         0.2066
     32 O         118.2800  129.3890    8.6970 O.2       1 PRO        -0.3942
     33 CB        118.2430  128.0270   11.5940 C.3       1 PRO        -0.0104
     34 CG        117.1190  129.0210   11.7950 C.3       1 PRO        -0.0281
     35 CD        117.8760  130.2830   12.1860 C.3       1 PRO         0.0369
     36 N         119.7760  127.7190    8.6970 N.am      1 PRO        -0.2498
     37 CA        119.5840  127.5290    7.2610 C.3       1 PRO         0.1338
     38 C         118.1760  126.9500    7.0210 C.2       1 PRO         0.2041
     39 O         117.5480  126.4020    7.9470 O.2       1 PRO        -0.3944
     40 CB        120.6840  126.4920    6.9080 C.3       1 PRO        -0.0104
     41 CG        120.8030  125.6780    8.1800 C.3       1 PRO        -0.0281
     42 CD        120.7770  126.7680    9.2370 C.3       1 PRO         0.0369
     43 N         117.6910  127.0900    5.7920 N.am      1 ARG        -0.2637
     44 CA        116.3960  126.5580    5.3880 C.3       1 ARG         0.1309
     45 C         116.6790  125.2200    4.7020 C.2       1 ARG         0.2019
     46 O         117.8020  124.9620    4.2650 O.2       1 ARG        -0.3945
     47 CB        115.7310  127.5070    4.3950 C.3       1 ARG        -0.0092
     48 CG        116.1130  128.9720    4.6080 C.3       1 ARG        -0.0156
     49 CD        115.3270  129.9170    3.7120 C.3       1 ARG         0.0627
     50 NE        114.1500  130.4320    4.4000 N.pl3     1 ARG        -0.2723
     51 CZ        113.9710  131.7080    4.7340 C.cat     1 ARG         0.2882
     52 NH1       114.8680  132.6460    4.4460 N.pl3     1 ARG        -0.2849
     53 NH2       112.9320  132.0330    5.4600 N.pl3     1 ARG        -0.2849
     54 N         115.6730  124.3600    4.5990 N.am      1 ARG        -0.2825
     55 CA        115.8620  123.0660    3.9460 C.3       1 ARG         0.0365
     56 C         114.7420  122.7470    2.9590 C.3       1 ARG        -0.0423
     57 CB        115.9940  121.9650    4.9850 C.3       1 ARG        -0.0423
     58 H1        122.9609  138.6101   17.7103 H         1 PRO         0.2035
     59 H2        122.0768  139.5259   18.7540 H         1 PRO         0.2035
     60 H3        120.4750  137.9980   18.7888 H         1 PRO         0.1099
     61 H4        119.0332  138.3943   16.9503 H         1 PRO         0.0347
     62 H5        120.3325  138.0787   15.7507 H         1 PRO         0.0347
     63 H6        119.8558  140.5437   17.4362 H         1 PRO         0.0320
     64 H7        120.0645  140.4117   15.6569 H         1 PRO         0.0320
     65 H8        122.3818  139.7854   15.8729 H         1 PRO         0.0814
     66 H9        122.1847  141.0640   17.1190 H         1 PRO         0.0814
     67 H10       122.3829  134.2319   17.7318 H         1 PRO         0.0802
     68 H11       120.7617  133.0942   18.9508 H         1 PRO         0.0313
     69 H12       120.2451  132.4935   17.3387 H         1 PRO         0.0313
     70 H13       118.4934  133.7860   18.8795 H         1 PRO         0.0287
     71 H14       118.5660  134.1573   17.1235 H         1 PRO         0.0287
     72 H15       118.8548  136.2979   18.0322 H         1 PRO         0.0524
     73 H16       119.7527  135.6769   19.4587 H         1 PRO         0.0524
     74 H17       122.8474  133.6820   13.4246 H         1 PRO         0.0802
     75 H18       124.4774  132.0185   13.6991 H         1 PRO         0.0313
     76 H19       123.1737  130.9016   13.1705 H         1 PRO         0.0313
     77 H20       124.3779  130.5579   15.5060 H         1 PRO         0.0287
     78 H21       122.6025  130.3322   15.3520 H         1 PRO         0.0287
     79 H22       122.7107  131.8999   17.1288 H         1 PRO         0.0524
     80 H23       124.1416  132.7334   16.4327 H         1 PRO         0.0524
     81 H24       121.4208  133.5482   11.7576 H         1 VAL         0.1883
     82 H25       118.7306  132.4921   12.3368 H         1 VAL         0.0803
     83 H26       119.8377  133.6565    9.7147 H         1 VAL         0.0343
     84 H27       117.4398  133.9448    9.1799 H         1 VAL         0.0234
     85 H28       117.0004  133.1729   10.7412 H         1 VAL         0.0234
     86 H29       117.8407  132.2184    9.4725 H         1 VAL         0.0234
     87 H30       119.8846  135.3056   11.5505 H         1 VAL         0.0234
     88 H31       118.1627  134.9448   11.9132 H         1 VAL         0.0234
     89 H32       118.6120  135.6951   10.3441 H         1 VAL         0.0234
     90 H33       120.2901  128.4989   11.0499 H         1 PRO         0.0802
     91 H34       118.6528  127.6910   12.5579 H         1 PRO         0.0313
     92 H35       117.9030  127.1550   11.0161 H         1 PRO         0.0313
     93 H36       116.4393  128.6983   12.5974 H         1 PRO         0.0287
     94 H37       116.5468  129.1698   10.8674 H         1 PRO         0.0287
     95 H38       117.2882  131.1857   11.9630 H         1 PRO         0.0524
     96 H39       118.1427  130.2734   13.2531 H         1 PRO         0.0524
     97 H40       119.7143  128.4652    6.6983 H         1 PRO         0.0802
     98 H41       121.6346  126.9901    6.6667 H         1 PRO         0.0313
     99 H42       120.3756  125.8606    6.0617 H         1 PRO         0.0313
    100 H43       121.7458  125.1121    8.2088 H         1 PRO         0.0287
    101 H44       119.9561  124.9856    8.2953 H         1 PRO         0.0287
    102 H45       120.4597  126.3684   10.2115 H         1 PRO         0.0524
    103 H46       121.7628  127.2450    9.3396 H         1 PRO         0.0524
    104 H47       118.2384  127.5818    5.1149 H         1 ARG         0.1883
    105 H48       115.7460  126.4157    6.2639 H         1 ARG         0.0800
    106 H49       114.6400  127.4123    4.4989 H         1 ARG         0.0313
    107 H50       116.0294  127.2130    3.3779 H         1 ARG         0.0313
    108 H51       117.1849  129.0917    4.3921 H         1 ARG         0.0301
    109 H52       115.9184  129.2380    5.6575 H         1 ARG         0.0301
    110 H53       115.0076  129.3748    2.8098 H         1 ARG         0.0689
    111 H54       115.9726  130.7598    3.4240 H         1 ARG         0.0689
    112 H55       113.4060  129.7630    4.6445 H         1 ARG         0.2642
    113 H56       114.6965  133.6240    4.7198 H         1 ARG         0.2615
    114 H57       115.7345  132.3947    3.9491 H         1 ARG         0.2615
    115 H58       112.2250  131.3217    5.6948 H         1 ARG         0.2615
    116 H59       112.8212  133.0001    5.7967 H         1 ARG         0.2615
    117 H60       114.7767  124.5999    4.9720 H         1 ARG         0.1854
    118 H61       116.8030  123.1121    3.3782 H         1 ARG         0.0550
    119 H62       114.9295  121.7670    2.4959 H         1 ARG         0.0252
    120 H63       114.7096  123.5213    2.1783 H         1 ARG         0.0252
    121 H64       113.7798  122.7228    3.4915 H         1 ARG         0.0252
    122 H65       116.1355  120.9985    4.4791 H         1 ARG         0.0252
    123 H66       115.0813  121.9278    5.5979 H         1 ARG         0.0252
    124 H67       116.8607  122.1715    5.6300 H         1 ARG         0.0252
@<TRIPOS>BOND
     1    1    2 1  
     2    1    7 1  
     3    2    3 1  
     4    2    5 1  
     5    3    4 2  
     6    3    8 am 
     7    5    6 1  
     8    6    7 1  
     9    8    9 1  
    10    8   14 1  
    11    9   10 1  
    12    9   12 1  
    13   10   11 2  
    14   10   15 am 
    15   12   13 1  
    16   13   14 1  
    17   15   16 1  
    18   15   21 1  
    19   16   17 1  
    20   16   19 1  
    21   17   18 2  
    22   17   22 am 
    23   19   20 1  
    24   20   21 1  
    25   22   23 1  
    26   23   24 1  
    27   23   26 1  
    28   24   25 2  
    29   24   29 am 
    30   26   27 1  
    31   26   28 1  
    32   29   30 1  
    33   29   35 1  
    34   30   31 1  
    35   30   33 1  
    36   31   32 2  
    37   31   36 am 
    38   33   34 1  
    39   34   35 1  
    40   36   37 1  
    41   36   42 1  
    42   37   38 1  
    43   37   40 1  
    44   38   39 2  
    45   38   43 am 
    46   40   41 1  
    47   41   42 1  
    48   43   44 1  
    49   44   45 1  
    50   44   47 1  
    51   45   46 2  
    52   45   54 am 
    53   47   48 1  
    54   48   49 1  
    55   49   50 1  
    56   50   51 ar 
    57   51   52 ar 
    58   51   53 ar 
    59   54   55 1  
    60   55   56 1  
    61   55   57 1  
    62    1   58 1  
    63    1   59 1  
    64    2   60 1  
    65    5   61 1  
    66    5   62 1  
    67    6   63 1  
    68    6   64 1  
    69    7   65 1  
    70    7   66 1  
    71    9   67 1  
    72   12   68 1  
    73   12   69 1  
    74   13   70 1  
    75   13   71 1  
    76   14   72 1  
    77   14   73 1  
    78   16   74 1  
    79   19   75 1  
    80   19   76 1  
    81   20   77 1  
    82   20   78 1  
    83   21   79 1  
    84   21   80 1  
    85   22   81 1  
    86   23   82 1  
    87   26   83 1  
    88   27   84 1  
    89   27   85 1  
    90   27   86 1  
    91   28   87 1  
    92   28   88 1  
    93   28   89 1  
    94   30   90 1  
    95   33   91 1  
    96   33   92 1  
    97   34   93 1  
    98   34   94 1  
    99   35   95 1  
   100   35   96 1  
   101   37   97 1  
   102   40   98 1  
   103   40   99 1  
   104   41  100 1  
   105   41  101 1  
   106   42  102 1  
   107   42  103 1  
   108   43  104 1  
   109   44  105 1  
   110   47  106 1  
   111   47  107 1  
   112   48  108 1  
   113   48  109 1  
   114   49  110 1  
   115   49  111 1  
   116   50  112 1  
   117   52  113 1  
   118   52  114 1  
   119   53  115 1  
   120   53  116 1  
   121   54  117 1  
   122   55  118 1  
   123   56  119 1  
   124   56  120 1  
   125   56  121 1  
   126   57  122 1  
   127   57  123 1  
   128   57  124 1  
@<TRIPOS>SUBSTRUCTURE
     1 PRO         1

