### 
### Created by X-TOOL on Mon Sep 10 21:12:45 2018
### 

@<TRIPOS>MOLECULE
1cnw_ligand
   51    51     1     0     0
SMALL
GAST_HUCK


@<TRIPOS>ATOM
      1 S          -6.0330    0.9590   17.0960 S.o2      1 EG1         0.0677
      2 O1         -5.5710    0.9590   18.4380 O.2       1 EG1        -0.1499
      3 O2         -7.4660    1.0840   17.0250 O.2       1 EG1        -0.1499
      4 N1         -5.4650   -0.1670   16.3890 N.am      1 EG1        -0.2605
      5 C1         -4.6630    4.4200   14.6230 C.ar      1 EG1         0.0499
      6 C2         -3.7550    3.3360   14.9060 C.ar      1 EG1        -0.0401
      7 C3         -4.2130    2.2520   15.6830 C.ar      1 EG1        -0.0295
      8 C4         -5.5130    2.2520   16.2480 C.ar      1 EG1         0.1122
      9 C5         -6.3610    3.3360   15.8950 C.ar      1 EG1        -0.0295
     10 C6         -5.9450    4.4200   15.1180 C.ar      1 EG1        -0.0401
     11 C7         -4.2470    5.5460   13.8460 C.2       1 EG1         0.2050
     12 O3         -4.9420    6.5050   13.5630 O.2       1 EG1        -0.3847
     13 N2         -3.0270    5.5460   13.4220 N.am      1 EG1        -0.2839
     14 C8         -2.4210    6.5890   12.5740 C.3       1 EG1         0.0538
     15 C9         -2.2030    7.9230   13.2100 C.3       1 EG1         0.0678
     16 O4         -1.1370    7.7980   14.1990 O.3       1 EG1        -0.3755
     17 C10        -1.4310    8.6740   15.3290 C.3       1 EG1         0.0711
     18 C11        -0.9970   10.0500   14.9760 C.3       1 EG1         0.0711
     19 O5         -1.5970   11.0290   15.8440 O.3       1 EG1        -0.3755
     20 C12        -1.1400   12.3040   15.4080 C.3       1 EG1         0.0678
     21 C13         0.1110   12.1830   14.6990 C.3       1 EG1         0.0544
     22 N3          0.9100   13.3750   14.9320 N.am      1 EG1        -0.2804
     23 C14         2.1780   13.2910   14.2260 C.2       1 EG1         0.2215
     24 O6          2.5250   12.2270   13.7440 O.2       1 EG1        -0.3912
     25 C15         3.0130   14.6000   14.0910 C.3       1 EG1         0.0543
     26 N4          2.1970   15.6690   14.7760 N.4       1 EG1         0.2357
     27 H1         -5.6361   -1.0979   16.7117 H         1 EG1         0.1635
     28 H2         -4.9010   -0.0149   15.5773 H         1 EG1         0.1635
     29 H3         -2.7391    3.3541   14.5284 H         1 EG1         0.0670
     30 H4         -3.5594    1.4037   15.8512 H         1 EG1         0.0649
     31 H5         -7.3860    3.3211   16.2476 H         1 EG1         0.0649
     32 H6         -6.6189    5.2432   14.9101 H         1 EG1         0.0670
     33 H7         -2.4469    4.7770   13.6904 H         1 EG1         0.1845
     34 H8         -3.0789    6.7369   11.7049 H         1 EG1         0.0542
     35 H9         -1.4430    6.2170   12.2346 H         1 EG1         0.0542
     36 H10        -3.1288    8.2545   13.7029 H         1 EG1         0.0580
     37 H11        -1.9130    8.6564   12.4431 H         1 EG1         0.0580
     38 H12        -0.8854    8.3286   16.2195 H         1 EG1         0.0583
     39 H13        -2.5115    8.6659   15.5349 H         1 EG1         0.0583
     40 H14        -1.2923   10.2632   13.9381 H         1 EG1         0.0583
     41 H15         0.0974   10.1144   15.0665 H         1 EG1         0.0583
     42 H16        -0.9974   12.9550   16.2831 H         1 EG1         0.0580
     43 H17        -1.8923   12.7479   14.7394 H         1 EG1         0.0580
     44 H18        -0.0854   12.0766   13.6219 H         1 EG1         0.0543
     45 H19         0.6554   11.2986   15.0617 H         1 EG1         0.0543
     46 H20         0.6261   14.1473   15.5003 H         1 EG1         0.1853
     47 H21         3.1648   14.8519   13.0311 H         1 EG1         0.1061
     48 H22         3.9895   14.4861   14.5844 H         1 EG1         0.1061
     49 H23         2.6853   16.5493   14.7241 H         1 EG1         0.2012
     50 H24         2.0582   15.4182   15.7424 H         1 EG1         0.2012
     51 H25         1.3025   15.7535   14.3190 H         1 EG1         0.2012
@<TRIPOS>BOND
     1    1    8 1  
     2    1    4 am 
     3    1    3 2  
     4    1    2 2  
     5    8    9 ar 
     6    8    7 ar 
     7    7    6 ar 
     8    6    5 ar 
     9    5   11 1  
    10    5   10 ar 
    11   10    9 ar 
    12   11   13 am 
    13   11   12 2  
    14   13   14 1  
    15   14   15 1  
    16   15   16 1  
    17   16   17 1  
    18   17   18 1  
    19   18   19 1  
    20   19   20 1  
    21   20   21 1  
    22   21   22 1  
    23   22   23 am 
    24   23   25 1  
    25   23   24 2  
    26   25   26 1  
    27    4   27 1  
    28    4   28 1  
    29    6   29 1  
    30    7   30 1  
    31    9   31 1  
    32   10   32 1  
    33   13   33 1  
    34   14   34 1  
    35   14   35 1  
    36   15   36 1  
    37   15   37 1  
    38   17   38 1  
    39   17   39 1  
    40   18   40 1  
    41   18   41 1  
    42   20   42 1  
    43   20   43 1  
    44   21   44 1  
    45   21   45 1  
    46   22   46 1  
    47   25   47 1  
    48   25   48 1  
    49   26   49 1  
    50   26   50 1  
    51   26   51 1  
@<TRIPOS>SUBSTRUCTURE
     1 EG1         1

