### 
### Created by X-TOOL on Mon Sep 10 21:12:45 2018
### 

@<TRIPOS>MOLECULE
1cnx_ligand
   44    44     1     0     0
SMALL
GAST_HUCK


@<TRIPOS>ATOM
      1 S          -5.9900    0.9170   17.0960 S.o2      1 EG2         0.0677
      2 O1         -5.5100    0.9170   18.3670 O.2       1 EG2        -0.1499
      3 O2         -7.4480    0.9590   16.9540 O.2       1 EG2        -0.1499
      4 N1         -5.3370   -0.2090   16.3890 N.am      1 EG2        -0.2605
      5 C1         -4.7060    4.3780   14.6230 C.ar      1 EG2         0.0499
      6 C2         -3.7550    3.3780   14.9060 C.ar      1 EG2        -0.0401
      7 C3         -4.2130    2.2930   15.6830 C.ar      1 EG2        -0.0295
      8 C4         -5.5380    2.2100   16.1770 C.ar      1 EG2         0.1122
      9 C5         -6.4280    3.2530   15.8240 C.ar      1 EG2        -0.0295
     10 C6         -6.0120    4.3370   15.0470 C.ar      1 EG2        -0.0401
     11 C7         -4.3140    5.5040   13.7750 C.2       1 EG2         0.2050
     12 O3         -4.9910    6.4220   13.4220 O.2       1 EG2        -0.3847
     13 N2         -2.9650    5.5460   13.3510 N.am      1 EG2        -0.2839
     14 C8         -2.4460    6.5890   12.5040 C.3       1 EG2         0.0538
     15 C9         -2.2090    7.9230   13.0690 C.3       1 EG2         0.0678
     16 O4         -1.3070    7.8810   14.1990 O.3       1 EG2        -0.3755
     17 C10        -1.4860    9.0070   15.0470 C.3       1 EG2         0.0711
     18 C11        -0.3810   10.0080   14.9060 C.3       1 EG2         0.0713
     19 O5         -0.8170   11.2620   15.5020 O.3       1 EG2        -0.3723
     20 C12        -0.1640   12.2980   14.8090 C.3       1 EG2         0.0875
     21 C13         0.1490   13.3850   15.7050 C.3       1 EG2        -0.0114
     22 N3          0.3890   14.6150   14.9720 N.4       1 EG2         0.2202
     23 H1         -5.4409   -1.1425   16.7322 H         1 EG2         0.1635
     24 H2         -4.7922   -0.0357   15.5685 H         1 EG2         0.1635
     25 H3         -2.7334    3.4384   14.5485 H         1 EG2         0.0670
     26 H4         -3.5222    1.4895   15.9114 H         1 EG2         0.0649
     27 H5         -7.4562    3.2095   16.1646 H         1 EG2         0.0649
     28 H6         -6.7047    5.1284   14.7844 H         1 EG2         0.0670
     29 H7         -2.3456    4.8209   13.6521 H         1 EG2         0.1845
     30 H8         -3.1586    6.7137   11.6754 H         1 EG2         0.0542
     31 H9         -1.4833    6.2323   12.1092 H         1 EG2         0.0542
     32 H10        -3.1701    8.3453   13.3975 H         1 EG2         0.0580
     33 H11        -1.7729    8.5660   12.2904 H         1 EG2         0.0580
     34 H12        -1.5190    8.6617   16.0909 H         1 EG2         0.0583
     35 H13        -2.4387    9.4940   14.7916 H         1 EG2         0.0583
     36 H14        -0.1535   10.1624   13.8409 H         1 EG2         0.0583
     37 H15         0.5184    9.6437   15.4240 H         1 EG2         0.0583
     38 H16        -0.8202   12.6672   14.0071 H         1 EG2         0.0613
     39 H17         0.7675   11.9100   14.3711 H         1 EG2         0.0613
     40 H18         1.0507   13.1280   16.2802 H         1 EG2         0.0836
     41 H19        -0.6948   13.5366   16.3942 H         1 EG2         0.0836
     42 H20         0.6048   15.3559   15.6205 H         1 EG2         0.1995
     43 H21        -0.4353   14.8588   14.4456 H         1 EG2         0.1995
     44 H22         1.1642   14.4844   14.3411 H         1 EG2         0.1995
@<TRIPOS>BOND
     1    1    8 1  
     2    1    4 am 
     3    1    3 2  
     4    1    2 2  
     5    8    9 ar 
     6    8    7 ar 
     7    7    6 ar 
     8    6    5 ar 
     9    5   11 1  
    10    5   10 ar 
    11   10    9 ar 
    12   11   13 am 
    13   11   12 2  
    14   13   14 1  
    15   14   15 1  
    16   15   16 1  
    17   16   17 1  
    18   17   18 1  
    19   18   19 1  
    20   19   20 1  
    21   20   21 1  
    22   21   22 1  
    23    4   23 1  
    24    4   24 1  
    25    6   25 1  
    26    7   26 1  
    27    9   27 1  
    28   10   28 1  
    29   13   29 1  
    30   14   30 1  
    31   14   31 1  
    32   15   32 1  
    33   15   33 1  
    34   17   34 1  
    35   17   35 1  
    36   18   36 1  
    37   18   37 1  
    38   20   38 1  
    39   20   39 1  
    40   21   40 1  
    41   21   41 1  
    42   22   42 1  
    43   22   43 1  
    44   22   44 1  
@<TRIPOS>SUBSTRUCTURE
     1 EG2         1

