### 
### Created by X-TOOL on Mon Sep 10 21:12:45 2018
### 

@<TRIPOS>MOLECULE
1cny_ligand
   64    65     1     0     0
SMALL
GAST_HUCK


@<TRIPOS>ATOM
      1 S          -6.0570    1.1260   17.0250 S.o2      1 EG3         0.0677
      2 O1         -5.6570    1.0840   18.4380 O.2       1 EG3        -0.1499
      3 O2         -7.4720    1.0420   16.8840 O.2       1 EG3        -0.1499
      4 N1         -5.3550   -0.0420   16.4600 N.am      1 EG3        -0.2605
      5 C1         -4.5530    4.6290   14.6940 C.ar      1 EG3         0.0499
      6 C2         -3.7060    3.5860   15.0470 C.ar      1 EG3        -0.0401
      7 C3         -4.1460    2.5020   15.7530 C.ar      1 EG3        -0.0295
      8 C4         -5.4760    2.4600   16.1070 C.ar      1 EG3         0.1122
      9 C5         -6.3240    3.4610   15.7530 C.ar      1 EG3        -0.0295
     10 C6         -5.8840    4.5870   15.0470 C.ar      1 EG3        -0.0401
     11 C7         -4.0700    5.6710   13.9870 C.2       1 EG3         0.2050
     12 O3         -4.6680    6.6720   13.4930 O.2       1 EG3        -0.3847
     13 N2         -2.6360    5.8380   13.5630 N.am      1 EG3        -0.2839
     14 C8         -2.3600    6.8800   12.5040 C.3       1 EG3         0.0538
     15 C9         -1.9520    8.2150   13.0690 C.3       1 EG3         0.0678
     16 O4         -1.1000    8.1730   14.0580 O.3       1 EG3        -0.3755
     17 C10        -1.2600    9.0910   15.3290 C.3       1 EG3         0.0711
     18 C11        -1.1310   10.5500   14.8350 C.3       1 EG3         0.0711
     19 O5         -0.3360   11.3350   15.7840 O.3       1 EG3        -0.3755
     20 C12         0.7430   12.0990   15.0450 C.3       1 EG3         0.0678
     21 C13         1.4770   12.9510   15.9490 C.3       1 EG3         0.0544
     22 N3          2.3130   13.8210   15.1390 N.am      1 EG3        -0.2800
     23 C14         3.1130   14.7450   16.0470 C.2       1 EG3         0.2266
     24 O6          3.0030   14.6740   17.2760 O.2       1 EG3        -0.3907
     25 C15         4.1370   15.6800   15.4470 C.3       1 EG3         0.0743
     26 N4          3.4680   16.9810   15.0790 N.4       1 EG3         0.2394
     27 C16         5.3480   15.9350   16.3490 C.3       1 EG3         0.0416
     28 C17         6.2940   16.9980   15.7530 C.ar      1 EG3        -0.0353
     29 C18         7.2000   16.5800   14.7590 C.ar      1 EG3        -0.0600
     30 C19         8.0720   17.5260   14.1870 C.ar      1 EG3        -0.0686
     31 C20         8.0340   18.8060   14.5990 C.ar      1 EG3        -0.0687
     32 C21         7.1290   19.2250   15.5950 C.ar      1 EG3        -0.0686
     33 C22         6.2890   18.2640   16.1870 C.ar      1 EG3        -0.0600
     34 H1         -5.5249   -0.9550   16.8308 H         1 EG3         0.1635
     35 H2         -4.7092    0.0793   15.7062 H         1 EG3         0.1635
     36 H3         -2.6636    3.6336   14.7532 H         1 EG3         0.0670
     37 H4         -3.4693    1.7003   16.0258 H         1 EG3         0.0649
     38 H5         -7.3706    3.3856   16.0249 H         1 EG3         0.0649
     39 H6         -6.5623    5.3922   14.7889 H         1 EG3         0.0670
     40 H7         -1.9027    5.2873   13.9618 H         1 EG3         0.1845
     41 H8         -3.2725    7.0190   11.9057 H         1 EG3         0.0542
     42 H9         -1.5496    6.5131   11.8569 H         1 EG3         0.0542
     43 H10        -2.8599    8.7231   13.4260 H         1 EG3         0.0580
     44 H11        -1.4987    8.8020   12.2566 H         1 EG3         0.0580
     45 H12        -0.4708    8.8667   16.0617 H         1 EG3         0.0583
     46 H13        -2.2454    8.9320   15.7912 H         1 EG3         0.0583
     47 H14        -2.1335   10.9939   14.7458 H         1 EG3         0.0583
     48 H15        -0.6372   10.5590   13.8521 H         1 EG3         0.0583
     49 H16         0.2766   12.7181   14.2645 H         1 EG3         0.0580
     50 H17         1.4372   11.3838   14.5797 H         1 EG3         0.0580
     51 H18         2.1037   12.3410   16.6161 H         1 EG3         0.0543
     52 H19         0.7790   13.5523   16.5500 H         1 EG3         0.0543
     53 H20         2.3562   13.8139   14.1400 H         1 EG3         0.1853
     54 H21         4.5104   15.2131   14.5237 H         1 EG3         0.1122
     55 H22         4.1487   17.6072   14.6783 H         1 EG3         0.2017
     56 H23         3.0712   17.4003   15.9053 H         1 EG3         0.2017
     57 H24         2.7372   16.8049   14.4075 H         1 EG3         0.2017
     58 H25         5.9036   14.9938   16.4733 H         1 EG3         0.0507
     59 H26         4.9937   16.2840   17.3302 H         1 EG3         0.0507
     60 H27         7.2256   15.5447   14.4389 H         1 EG3         0.0557
     61 H28         8.7721   17.2236   13.4166 H         1 EG3         0.0599
     62 H29         8.7113   19.5279   14.1572 H         1 EG3         0.0559
     63 H30         7.0812   20.2646   15.8982 H         1 EG3         0.0599
     64 H31         5.6329   18.5512   17.0007 H         1 EG3         0.0557
@<TRIPOS>BOND
     1    1    8 1  
     2    1    4 am 
     3    1    3 2  
     4    1    2 2  
     5    8    9 ar 
     6    8    7 ar 
     7    7    6 ar 
     8    6    5 ar 
     9    5   11 1  
    10    5   10 ar 
    11   10    9 ar 
    12   11   13 am 
    13   11   12 2  
    14   13   14 1  
    15   14   15 1  
    16   15   16 1  
    17   16   17 1  
    18   17   18 1  
    19   18   19 1  
    20   19   20 1  
    21   20   21 1  
    22   21   22 1  
    23   22   23 am 
    24   23   25 1  
    25   23   24 2  
    26   25   27 1  
    27   25   26 1  
    28   27   28 1  
    29   28   33 ar 
    30   28   29 ar 
    31   29   30 ar 
    32   30   31 ar 
    33   31   32 ar 
    34   32   33 ar 
    35    4   34 1  
    36    4   35 1  
    37    6   36 1  
    38    7   37 1  
    39    9   38 1  
    40   10   39 1  
    41   13   40 1  
    42   14   41 1  
    43   14   42 1  
    44   15   43 1  
    45   15   44 1  
    46   17   45 1  
    47   17   46 1  
    48   18   47 1  
    49   18   48 1  
    50   20   49 1  
    51   20   50 1  
    52   21   51 1  
    53   21   52 1  
    54   22   53 1  
    55   25   54 1  
    56   26   55 1  
    57   26   56 1  
    58   26   57 1  
    59   27   58 1  
    60   27   59 1  
    61   29   60 1  
    62   30   61 1  
    63   31   62 1  
    64   32   63 1  
    65   33   64 1  
@<TRIPOS>SUBSTRUCTURE
     1 EG3         1

