### 
### Created by X-TOOL on Mon Sep 10 21:12:45 2018
### 

@<TRIPOS>MOLECULE
1cpi_ligand
  103   105     1     0     0
SMALL
GAST_HUCK


@<TRIPOS>ATOM
      1 C1          4.2490    3.3440   10.4910 C.2       1 RTY         0.1784
      2 O1          4.1140    4.2700   11.3000 O.2       1 RTY        -0.3969
      3 C2          4.8290    3.5710    9.1120 C.3       1 RTY         0.0398
      4 C3          5.8690    4.6580    9.0570 C.3       1 RTY        -0.0084
      5 N           3.9120    2.0840   10.7490 N.am      1 ASN        -0.2635
      6 CA          3.3240    1.6650   12.0230 C.3       1 ASN         0.1474
      7 C           4.0550    0.4320   12.5450 C.2       1 ASN         0.2045
      8 O           3.8610   -0.6810   12.0360 O.2       1 ASN        -0.3943
      9 CB          1.8370    1.3720   11.8290 C.3       1 ASN         0.0773
     10 CG          1.0780    2.5770   11.2900 C.2       1 ASN         0.1780
     11 OD1         0.7740    3.5130   12.0260 O.2       1 ASN        -0.3970
     12 ND2         0.8110    2.5770    9.9930 N.am      1 ASN        -0.3007
     13 N           4.8980    0.6450   13.5590 N.am      1 RTY        -0.2774
     14 CA          5.6950   -0.4380   14.1710 C.3       1 RTY         0.0809
     15 C           5.1730   -0.7350   15.5820 C.3       1 RTY         0.1192
     16 O           5.2660    0.4250   16.4280 O.3       1 RTY        -0.3841
     17 CB          7.1400    0.0470   14.2830 C.3       1 RTY         0.0015
     18 CG          7.5240    0.8130   13.0560 C.ar      1 RTY        -0.0515
     19 CD1         7.6430    0.1830   11.8220 C.ar      1 RTY        -0.0687
     20 CD2         7.5550    2.1930   13.0970 C.ar      1 RTY        -0.0687
     21 CE1         7.7510    0.9180   10.6550 C.ar      1 RTY        -0.0396
     22 CE2         7.6690    2.9320   11.9650 C.ar      1 RTY        -0.0396
     23 CZ          7.7530    2.2990   10.7300 C.ar      1 RTY         0.0840
     24 OH          7.7360    3.0770    9.5830 O.3       1 RTY        -0.3223
     25 C           3.7270   -1.1680   15.4940 C.3       1 RTY        -0.0008
     26 N           3.5730   -2.6280   15.5040 N.4       1 PRO         0.2560
     27 CA          4.2990   -3.4650   16.4560 C.3       1 PRO         0.0689
     28 C           5.5900   -4.1130   15.9410 C.2       1 PRO         0.2269
     29 O           5.8690   -4.1740   14.7250 O.2       1 PRO        -0.3907
     30 CB          3.2690   -4.5380   16.7950 C.3       1 PRO         0.0128
     31 CG          2.6110   -4.7530   15.4730 C.3       1 PRO        -0.0052
     32 CD          2.4310   -3.3560   14.9190 C.3       1 PRO        -0.0294
     33 N           6.4040   -4.5230   16.9010 N.am      1 ILE        -0.2608
     34 CA          7.6420   -5.2620   16.6320 C.3       1 ILE         0.1336
     35 C           7.4690   -6.3740   17.6280 C.2       1 ILE         0.2042
     36 O           7.5770   -6.1410   18.8380 O.2       1 ILE        -0.3944
     37 CB          8.9410   -4.5460   17.0440 C.3       1 ILE        -0.0037
     38 CG1         9.1960   -3.3310   16.1680 C.3       1 ILE        -0.0491
     39 CG2        10.1040   -5.5230   16.9400 C.3       1 ILE        -0.0582
     40 CD1         9.2120   -3.6560   14.7230 C.3       1 ILE        -0.0648
     41 N           7.1020   -7.5530   17.1500 N.am      1 VAL        -0.2635
     42 CA          6.9450   -8.6850   18.0590 C.3       1 VAL         0.1329
     43 C           8.0200   -9.7490   17.8010 C.2       1 VAL         0.1994
     44 O           8.3360  -10.0780   16.6430 O.2       1 VAL        -0.3947
     45 CB          5.5150   -9.2710   18.0080 C.3       1 VAL        -0.0063
     46 CG1         4.5130   -8.2070   18.3910 C.3       1 VAL        -0.0584
     47 CG2         5.2000   -9.8440   16.6210 C.3       1 VAL        -0.0584
     48 N           8.6340  -10.2480   18.8790 N.am      1 NH2        -0.2990
     49 C           7.1280    4.3450    9.8830 C.3       1 RTY         0.0710
     50 H1          4.0083    3.8427    8.4319 H         1 RTY         0.0503
     51 H2          5.2913    2.6325    8.7723 H         1 RTY         0.0503
     52 H3          5.4225    5.5869    9.4414 H         1 RTY         0.0315
     53 H4          6.1676    4.8014    8.0081 H         1 RTY         0.0315
     54 H5          4.0667    1.3930   10.0429 H         1 ASN         0.1884
     55 H6          3.4334    2.4791   12.7546 H         1 ASN         0.0826
     56 H7          1.4032    1.0850   12.7982 H         1 ASN         0.0551
     57 H8          1.7299    0.5393   11.1183 H         1 ASN         0.0551
     58 H9          0.3149    3.3432    9.5847 H         1 ASN         0.1814
     59 H10         1.1055    1.8108    9.4219 H         1 ASN         0.1814
     60 H11         4.9933    1.5735   13.9178 H         1 RTY         0.1857
     61 H12         5.6414   -1.3447   13.5506 H         1 RTY         0.0604
     62 H13         5.7715   -1.5468   16.0211 H         1 RTY         0.0672
     63 H14         6.1740    0.6970   16.4919 H         1 RTY         0.2101
     64 H15         7.8071   -0.8206   14.3934 H         1 RTY         0.0428
     65 H16         7.2374    0.6988   15.1637 H         1 RTY         0.0428
     66 H17         7.6513   -0.8999   11.7738 H         1 RTY         0.0530
     67 H18         7.4868    2.6967   14.0544 H         1 RTY         0.0530
     68 H19         7.8328    0.4190    9.6962 H         1 RTY         0.0525
     69 H20         7.6946    4.0141   12.0233 H         1 RTY         0.0525
     70 H21         3.2977   -0.7749   14.5606 H         1 RTY         0.0841
     71 H22         3.1813   -0.7504   16.3530 H         1 RTY         0.0841
     72 H23         4.1972   -2.7698   14.7254 H         1 PRO         0.2056
     73 H24         4.5503   -2.8719   17.3476 H         1 PRO         0.1100
     74 H25         2.5504   -4.1808   17.5473 H         1 PRO         0.0347
     75 H26         3.7520   -5.4576   17.1569 H         1 PRO         0.0347
     76 H27         1.6387   -5.2521   15.5973 H         1 PRO         0.0320
     77 H28         3.2508   -5.3559   14.8118 H         1 PRO         0.0320
     78 H29         2.4805   -3.3553   13.8201 H         1 PRO         0.0815
     79 H30         1.4743   -2.9205   15.2433 H         1 PRO         0.0815
     80 H31         6.1645   -4.3201   17.8505 H         1 ILE         0.1885
     81 H32         7.6994   -5.6000   15.5868 H         1 ILE         0.0803
     82 H33         8.8464   -4.2123   18.0879 H         1 ILE         0.0345
     83 H34        10.1700   -2.8992   16.4415 H         1 ILE         0.0267
     84 H35         8.4024   -2.5921   16.3528 H         1 ILE         0.0267
     85 H36         9.9068   -6.3970   17.5782 H         1 ILE         0.0235
     86 H37        11.0291   -5.0285   17.2711 H         1 ILE         0.0235
     87 H38        10.2163   -5.8496   15.8956 H         1 ILE         0.0235
     88 H39         9.4002   -2.7403   14.1433 H         1 ILE         0.0230
     89 H40         8.2401   -4.0810   14.4319 H         1 ILE         0.0230
     90 H41        10.0077   -4.3880   14.5206 H         1 ILE         0.0230
     91 H42         6.9331   -7.6677   16.1711 H         1 VAL         0.1883
     92 H43         7.1009   -8.3072   19.0802 H         1 VAL         0.0802
     93 H44         5.4497  -10.0897   18.7397 H         1 VAL         0.0343
     94 H45         3.4978   -8.6288   18.3532 H         1 VAL         0.0234
     95 H46         4.5863   -7.3642   17.6879 H         1 VAL         0.0234
     96 H47         4.7253   -7.8534   19.4107 H         1 VAL         0.0234
     97 H48         5.9420  -10.6149   16.3656 H         1 VAL         0.0234
     98 H49         5.2373   -9.0375   15.8739 H         1 VAL         0.0234
     99 H50         4.1949  -10.2908   16.6284 H         1 VAL         0.0234
    100 H51         9.3435  -10.9446   18.7726 H         1 NH2         0.1815
    101 H52         8.3836   -9.9246   19.7915 H         1 NH2         0.1815
    102 H53         6.8510    4.3502   10.9475 H         1 RTY         0.0612
    103 H54         7.8692    5.1353    9.6931 H         1 RTY         0.0612
@<TRIPOS>BOND
     1    1    2 2  
     2    1    3 1  
     3    1    5 am 
     4    3    4 1  
     5    4   49 1  
     6    5    6 1  
     7    6    7 1  
     8    6    9 1  
     9    7    8 2  
    10    7   13 am 
    11    9   10 1  
    12   10   11 2  
    13   10   12 am 
    14   13   14 1  
    15   14   15 1  
    16   14   17 1  
    17   15   16 1  
    18   15   25 1  
    19   17   18 1  
    20   18   19 ar 
    21   18   20 ar 
    22   19   21 ar 
    23   20   22 ar 
    24   21   23 ar 
    25   22   23 ar 
    26   23   24 1  
    27   24   49 1  
    28   25   26 1  
    29   26   27 1  
    30   26   32 1  
    31   27   28 1  
    32   27   30 1  
    33   28   29 2  
    34   28   33 am 
    35   30   31 1  
    36   31   32 1  
    37   33   34 1  
    38   34   35 1  
    39   34   37 1  
    40   35   36 2  
    41   35   41 am 
    42   37   38 1  
    43   37   39 1  
    44   38   40 1  
    45   41   42 1  
    46   42   43 1  
    47   42   45 1  
    48   43   44 2  
    49   43   48 am 
    50   45   46 1  
    51   45   47 1  
    52    3   50 1  
    53    3   51 1  
    54    4   52 1  
    55    4   53 1  
    56    5   54 1  
    57    6   55 1  
    58    9   56 1  
    59    9   57 1  
    60   12   58 1  
    61   12   59 1  
    62   13   60 1  
    63   14   61 1  
    64   15   62 1  
    65   16   63 1  
    66   17   64 1  
    67   17   65 1  
    68   19   66 1  
    69   20   67 1  
    70   21   68 1  
    71   22   69 1  
    72   25   70 1  
    73   25   71 1  
    74   26   72 1  
    75   27   73 1  
    76   30   74 1  
    77   30   75 1  
    78   31   76 1  
    79   31   77 1  
    80   32   78 1  
    81   32   79 1  
    82   33   80 1  
    83   34   81 1  
    84   37   82 1  
    85   38   83 1  
    86   38   84 1  
    87   39   85 1  
    88   39   86 1  
    89   39   87 1  
    90   40   88 1  
    91   40   89 1  
    92   40   90 1  
    93   41   91 1  
    94   42   92 1  
    95   45   93 1  
    96   46   94 1  
    97   46   95 1  
    98   46   96 1  
    99   47   97 1  
   100   47   98 1  
   101   47   99 1  
   102   48  100 1  
   103   48  101 1  
   104   49  102 1  
   105   49  103 1  
@<TRIPOS>SUBSTRUCTURE
     1 RTY         1

