### 
### Created by X-TOOL on Mon Sep 10 21:12:45 2018
### 

@<TRIPOS>MOLECULE
1cps_ligand
   31    31     1     0     0
SMALL
GAST_HUCK


@<TRIPOS>ATOM
      1 CA1        -2.7680   30.8040   -6.5530 C.3       1 CPM         0.0457
      2 CA         -2.5920   29.8980   -7.9100 C.3       1 CPM         0.0378
      3 C          -0.9190   29.7770   -8.0510 C.2       1 CPM         0.0413
      4 O          -0.1400   30.8640   -7.6760 O.co2     1 CPM        -0.5685
      5 CB         -2.9750   31.1660   -8.9400 C.3       1 CPM        -0.0033
      6 CG         -2.5800   30.4420  -10.3910 C.ar      1 CPM        -0.0411
      7 CD1        -3.8270   29.8380  -11.1400 C.ar      1 CPM        -0.0602
      8 CD2        -1.1290   30.4420  -10.8120 C.ar      1 CPM        -0.0602
      9 CE1        -3.2370   29.1730  -12.4970 C.ar      1 CPM        -0.0686
     10 CE2        -0.7400   29.7170  -12.2170 C.ar      1 CPM        -0.0686
     11 CZ         -2.1080   29.1730  -12.8250 C.ar      1 CPM        -0.0687
     12 OXT        -0.6000   28.5690   -8.5190 O.co2     1 CPM        -0.5685
     13 S          -2.8410   29.7170   -5.1960 S.o2      1 CPM        -0.2221
     14 N1         -3.8140   28.5090   -5.6640 N.2       1 CPM        -0.2400
     15 N2         -1.4020   29.2940   -4.7270 N.2       1 CPM        -0.2400
     16 CM         -3.6310   30.5620   -3.8850 C.3       1 CPM         0.0186
     17 H1         -3.6961   31.3914   -6.6126 H         1 CPM         0.0492
     18 H2         -1.9102   31.4837   -6.4426 H         1 CPM         0.0492
     19 H3         -3.1631   28.9619   -7.9967 H         1 CPM         0.0503
     20 H4         -2.3627   32.0583   -8.7429 H         1 CPM         0.0447
     21 H5         -4.0407   31.4337   -8.8880 H         1 CPM         0.0447
     22 H6         -4.8614   29.8617  -10.8168 H         1 CPM         0.0557
     23 H7         -0.3694   30.9108  -10.1969 H         1 CPM         0.0557
     24 H8         -3.9448   28.6867  -13.1584 H         1 CPM         0.0599
     25 H9          0.2491   29.6235  -12.6506 H         1 CPM         0.0599
     26 H10        -1.9615   28.6798  -13.7791 H         1 CPM         0.0559
     27 H11        -4.0102   27.7470   -5.0340 H         1 CPM         0.2056
     28 H12        -1.2906   28.6647   -3.9475 H         1 CPM         0.2056
     29 H13        -3.6940   29.9010   -3.0080 H         1 CPM         0.0433
     30 H14        -4.6443   30.8560   -4.1960 H         1 CPM         0.0433
     31 H15        -3.0518   31.4606   -3.6261 H         1 CPM         0.0433
@<TRIPOS>BOND
     1    1    2 1  
     2    1   13 1  
     3    2    3 1  
     4    2    5 1  
     5    3    4 ar 
     6    3   12 ar 
     7    5    6 1  
     8    6    7 ar 
     9    6    8 ar 
    10    7    9 ar 
    11    8   10 ar 
    12    9   11 ar 
    13   10   11 ar 
    14   13   14 2  
    15   13   15 2  
    16   13   16 1  
    17    1   17 1  
    18    1   18 1  
    19    2   19 1  
    20    5   20 1  
    21    5   21 1  
    22    7   22 1  
    23    8   23 1  
    24    9   24 1  
    25   10   25 1  
    26   11   26 1  
    27   14   27 1  
    28   15   28 1  
    29   16   29 1  
    30   16   30 1  
    31   16   31 1  
@<TRIPOS>SUBSTRUCTURE
     1 CPM         1

