### 
### Created by X-TOOL on Mon Sep 10 21:12:47 2018
### 

@<TRIPOS>MOLECULE
1cqp_ligand
   65    67     1     0     0
SMALL
GAST_HUCK


@<TRIPOS>ATOM
      1 C1         52.4970   19.0250   23.0520 C.3       1 803         0.0991
      2 C2         52.3930   17.4820   22.9710 C.3       1 803        -0.0111
      3 C3         52.3590   16.8340   24.3770 C.3       1 803        -0.0250
      4 C21        53.7770   16.4580   24.8570 C.3       1 803        -0.0555
      5 C4         51.6980   17.6970   25.4280 C.2       1 803        -0.0920
      6 C24        51.2060   18.9180   25.1890 C.2       1 803        -0.0677
      7 C5         50.5820   19.6860   26.2740 C.2       1 803        -0.0819
      8 C6         50.1060   20.9220   26.0850 C.2       1 803        -0.0815
      9 C7         50.1760   21.6320   24.7610 C.3       1 803        -0.0129
     10 C20        48.8680   21.5420   23.9490 C.3       1 803        -0.0519
     11 C8         51.3640   21.0580   23.9710 C.3       1 803        -0.0163
     12 C9         51.2660   19.5320   23.8230 C.3       1 803         0.0160
     13 C10        51.4470   21.6940   22.5800 C.3       1 803        -0.0434
     14 C11        51.6710   23.2090   22.7270 C.3       1 803        -0.0215
     15 C12        52.1770   23.6960   21.3660 C.3       1 803         0.0901
     16 C13        52.4360   25.2180   21.4380 C.3       1 803         0.0062
     17 C14        51.5990   25.9840   20.4090 C.3       1 803         0.0758
     18 O3         52.1580   25.8210   19.1020 O.3       1 803        -0.3892
     19 C15        50.1960   25.3740   20.5210 C.3       1 803         0.0748
     20 C22        50.2820   23.9780   19.9740 C.2       1 803         0.2365
     21 O2         49.4630   23.5850   19.1560 O.2       1 803        -0.3703
     22 O1         51.2610   23.1690   20.3890 O.3       1 803        -0.2734
     23 O4         53.6780   19.4070   23.7720 O.3       1 803        -0.2712
     24 C23        54.7650   19.3950   22.9950 C.2       1 803         0.2369
     25 O5         54.7340   19.1020   21.8090 O.2       1 803        -0.3701
     26 C16        56.0300   19.7780   23.7120 C.3       1 803         0.0570
     27 C19        57.0590   18.6370   23.6090 C.3       1 803        -0.0440
     28 C17        56.6070   21.0700   23.1160 C.3       1 803        -0.0350
     29 C18        55.5920   22.2020   23.3600 C.3       1 803        -0.0629
     30 H1         52.5204   19.4558   22.0401 H         1 803         0.0672
     31 H2         53.2635   17.0947   22.4213 H         1 803         0.0319
     32 H3         51.4713   17.2148   22.4334 H         1 803         0.0319
     33 H4         51.7720   15.9076   24.2916 H         1 803         0.0426
     34 H5         53.7169   16.0015   25.8560 H         1 803         0.0253
     35 H6         54.4001   17.3632   24.9045 H         1 803         0.0253
     36 H7         54.2245   15.7413   24.1527 H         1 803         0.0253
     37 H8         51.6176   17.3013   26.4394 H         1 803         0.0428
     38 H9         50.5043   19.2358   27.2625 H         1 803         0.0405
     39 H10        49.6473   21.4371   26.9277 H         1 803         0.0629
     40 H11        50.3699   22.6971   24.9559 H         1 803         0.0478
     41 H12        48.0398   21.9596   24.5404 H         1 803         0.0259
     42 H13        48.6550   20.4891   23.7123 H         1 803         0.0259
     43 H14        48.9761   22.1131   23.0151 H         1 803         0.0259
     44 H15        52.2867   21.2950   24.5210 H         1 803         0.0351
     45 H16        50.3544   19.2710   23.2655 H         1 803         0.0452
     46 H17        50.5083   21.5123   22.0361 H         1 803         0.0272
     47 H18        52.2854   21.2509   22.0226 H         1 803         0.0272
     48 H19        52.4197   23.4106   23.5073 H         1 803         0.0294
     49 H20        50.7273   23.7114   22.9857 H         1 803         0.0294
     50 H21        53.1532   23.2312   21.1638 H         1 803         0.0650
     51 H22        53.5018   25.4079   21.2431 H         1 803         0.0320
     52 H23        52.1779   25.5764   22.4454 H         1 803         0.0320
     53 H24        51.5674   27.0555   20.6557 H         1 803         0.0620
     54 H25        52.1653   24.8987   18.8747 H         1 803         0.2100
     55 H26        49.4781   25.9663   19.9347 H         1 803         0.0544
     56 H27        49.8774   25.3488   21.5736 H         1 803         0.0544
     57 H28        55.7977   19.9511   24.7732 H         1 803         0.0551
     58 H29        57.9805   18.9256   24.1359 H         1 803         0.0258
     59 H30        57.2872   18.4434   22.5505 H         1 803         0.0258
     60 H31        56.6445   17.7269   24.0671 H         1 803         0.0258
     61 H32        56.7708   20.9421   22.0358 H         1 803         0.0291
     62 H33        57.5617   21.3129   23.6054 H         1 803         0.0291
     63 H34        55.9826   23.1412   22.9413 H         1 803         0.0231
     64 H35        55.4297   22.3222   24.4413 H         1 803         0.0231
     65 H36        54.6387   21.9513   22.8717 H         1 803         0.0231
@<TRIPOS>BOND
     1    1    2 1  
     2    1   12 1  
     3    1   23 1  
     4    2    3 1  
     5    3    4 1  
     6    3    5 1  
     7    5    6 2  
     8    6    7 1  
     9    6   12 1  
    10    7    8 2  
    11    8    9 1  
    12    9   10 1  
    13    9   11 1  
    14   11   12 1  
    15   11   13 1  
    16   13   14 1  
    17   14   15 1  
    18   15   16 1  
    19   15   22 1  
    20   16   17 1  
    21   17   18 1  
    22   17   19 1  
    23   19   20 1  
    24   20   21 2  
    25   20   22 1  
    26   23   24 1  
    27   24   25 2  
    28   24   26 1  
    29   26   27 1  
    30   26   28 1  
    31   28   29 1  
    32    1   30 1  
    33    2   31 1  
    34    2   32 1  
    35    3   33 1  
    36    4   34 1  
    37    4   35 1  
    38    4   36 1  
    39    5   37 1  
    40    7   38 1  
    41    8   39 1  
    42    9   40 1  
    43   10   41 1  
    44   10   42 1  
    45   10   43 1  
    46   11   44 1  
    47   12   45 1  
    48   13   46 1  
    49   13   47 1  
    50   14   48 1  
    51   14   49 1  
    52   15   50 1  
    53   16   51 1  
    54   16   52 1  
    55   17   53 1  
    56   18   54 1  
    57   19   55 1  
    58   19   56 1  
    59   26   57 1  
    60   27   58 1  
    61   27   59 1  
    62   27   60 1  
    63   28   61 1  
    64   28   62 1  
    65   29   63 1  
    66   29   64 1  
    67   29   65 1  
@<TRIPOS>SUBSTRUCTURE
     1 803         1

