### 
### Created by X-TOOL on Mon Sep 10 21:12:47 2018
### 

@<TRIPOS>MOLECULE
1cr6_ligand
   43    44     1     0     0
SMALL
GAST_HUCK


@<TRIPOS>ATOM
      1 C1        -46.1960 -117.2040  -33.2330 C.ar      1 CPU        -0.0603
      2 C2        -47.2420 -117.6300  -34.0980 C.ar      1 CPU        -0.0686
      3 C3        -48.1780 -116.6820  -34.5580 C.ar      1 CPU        -0.0687
      4 C4        -48.0550 -115.3210  -34.1490 C.ar      1 CPU        -0.0686
      5 C5        -46.9990 -114.8860  -33.2730 C.ar      1 CPU        -0.0603
      6 C6        -46.0720 -115.8200  -32.8130 C.ar      1 CPU        -0.0430
      7 N1        -43.1870 -113.4940  -29.2740 N.am      1 CPU        -0.2730
      8 C7        -44.9120 -115.4690  -31.8810 C.3       1 CPU        -0.0174
      9 C8        -44.9130 -114.2970  -30.9330 C.3       1 CPU        -0.0232
     10 C9        -43.5610 -114.4830  -30.2650 C.3       1 CPU         0.0330
     11 C10       -42.0260 -113.5950  -28.5970 C.2       1 CPU         0.2576
     12 O1        -41.7970 -112.7000  -27.7740 O.2       1 CPU        -0.4008
     13 N2        -41.1650 -114.6340  -28.8030 N.am      1 CPU        -0.2701
     14 C11       -39.8600 -114.8490  -28.0930 C.3       1 CPU         0.0424
     15 C12       -39.3470 -116.3060  -28.3840 C.3       1 CPU        -0.0301
     16 C13       -37.9780 -116.6520  -27.6610 C.3       1 CPU        -0.0510
     17 C14       -37.9900 -116.3180  -26.1040 C.3       1 CPU        -0.0529
     18 C15       -38.6350 -114.9040  -25.7700 C.3       1 CPU        -0.0510
     19 C16       -40.0010 -114.6530  -26.5380 C.3       1 CPU        -0.0301
     20 H1        -45.4738 -117.9307  -32.8788 H         1 CPU         0.0557
     21 H2        -47.3180 -118.6686  -34.3989 H         1 CPU         0.0599
     22 H3        -48.9841 -116.9844  -35.2167 H         1 CPU         0.0559
     23 H4        -48.7759 -114.5951  -34.5074 H         1 CPU         0.0599
     24 H5        -46.9256 -113.8463  -32.9750 H         1 CPU         0.0557
     25 H6        -43.7994 -112.7252  -29.0897 H         1 CPU         0.1845
     26 H7        -44.0394 -115.3222  -32.5344 H         1 CPU         0.0427
     27 H8        -44.7548 -116.3588  -31.2537 H         1 CPU         0.0427
     28 H9        -45.7372 -114.3618  -30.2074 H         1 CPU         0.0306
     29 H10       -44.9723 -113.3392  -31.4708 H         1 CPU         0.0306
     30 H11       -43.5649 -115.4659  -29.7711 H         1 CPU         0.0518
     31 H12       -42.7944 -114.4720  -31.0538 H         1 CPU         0.0518
     32 H13       -41.4272 -115.3131  -29.4886 H         1 CPU         0.1848
     33 H14       -39.1268 -114.1235  -28.4751 H         1 CPU         0.0553
     34 H15       -39.2045 -116.4145  -29.4693 H         1 CPU         0.0287
     35 H16       -40.1113 -117.0190  -28.0414 H         1 CPU         0.0287
     36 H17       -37.1744 -116.0711  -28.1371 H         1 CPU         0.0266
     37 H18       -37.7778 -117.7263  -27.7867 H         1 CPU         0.0266
     38 H19       -36.9529 -116.3241  -25.7374 H         1 CPU         0.0265
     39 H20       -38.5673 -117.0967  -25.5841 H         1 CPU         0.0265
     40 H21       -37.9219 -114.1165  -26.0552 H         1 CPU         0.0266
     41 H22       -38.8257 -114.8517  -24.6879 H         1 CPU         0.0266
     42 H23       -40.7539 -115.3601  -26.1597 H         1 CPU         0.0287
     43 H24       -40.3331 -113.6231  -26.3405 H         1 CPU         0.0287
@<TRIPOS>BOND
     1    1    2 ar 
     2    6    1 ar 
     3    2    3 ar 
     4    4    3 ar 
     5    5    4 ar 
     6    6    5 ar 
     7    8    6 1  
     8   10    7 1  
     9    7   11 am 
    10    9    8 1  
    11    9   10 1  
    12   11   12 2  
    13   11   13 am 
    14   13   14 1  
    15   14   15 1  
    16   14   19 1  
    17   15   16 1  
    18   16   17 1  
    19   17   18 1  
    20   18   19 1  
    21    1   20 1  
    22    2   21 1  
    23    3   22 1  
    24    4   23 1  
    25    5   24 1  
    26    7   25 1  
    27    8   26 1  
    28    8   27 1  
    29    9   28 1  
    30    9   29 1  
    31   10   30 1  
    32   10   31 1  
    33   13   32 1  
    34   14   33 1  
    35   15   34 1  
    36   15   35 1  
    37   16   36 1  
    38   16   37 1  
    39   17   38 1  
    40   17   39 1  
    41   18   40 1  
    42   18   41 1  
    43   19   42 1  
    44   19   43 1  
@<TRIPOS>SUBSTRUCTURE
     1 CPU         1

