### 
### Created by X-TOOL on Mon Sep 10 21:12:45 2018
### 

@<TRIPOS>MOLECULE
1ctr_ligand
   48    51     1     0     0
SMALL
GAST_HUCK


@<TRIPOS>ATOM
      1 C1          6.9850   25.8760  104.0390 C.ar      1 TFP         0.0223
      2 C2          7.5590   24.7360  104.5850 C.ar      1 TFP        -0.0450
      3 C3          7.0040   24.1730  105.7110 C.ar      1 TFP        -0.0186
      4 C4          5.8760   24.7230  106.2940 C.ar      1 TFP         0.0903
      5 C5          5.2350   25.8080  105.7010 C.ar      1 TFP         0.1073
      6 C6          5.8330   26.4260  104.5910 C.ar      1 TFP        -0.0191
      7 S           5.2980   24.0240  107.8210 S.3       1 TFP        -0.0225
      8 C7          4.5620   25.3790  108.6120 C.ar      1 TFP         0.0606
      9 C8          4.4590   25.3370  110.0060 C.ar      1 TFP        -0.0556
     10 C9          3.8500   26.3520  110.7050 C.ar      1 TFP        -0.0791
     11 C10         3.3150   27.3960  110.0090 C.ar      1 TFP        -0.0784
     12 C11         3.4220   27.4380  108.6150 C.ar      1 TFP        -0.0438
     13 C12         4.1000   26.4590  107.8620 C.ar      1 TFP         0.0783
     14 N1          4.1250   26.4340  106.3630 N.pl3     1 TFP        -0.2569
     15 C13         3.5590   27.5620  105.6230 C.3       1 TFP         0.0453
     16 C14         2.3730   27.1430  104.7420 C.3       1 TFP        -0.0084
     17 C15         2.0220   28.1960  103.6860 C.3       1 TFP         0.0314
     18 N2          0.6860   28.1050  103.1690 N.pl3     1 TFP        -0.3119
     19 C16         0.4460   28.5180  101.8330 C.2       1 TFP         0.0085
     20 C17        -0.8690   28.4570  101.2660 C.2       1 TFP         0.0082
     21 N3         -1.9630   27.9800  102.0470 N.pl3     1 TFP        -0.3148
     22 C18        -1.7440   27.5720  103.3940 C.2       1 TFP         0.0082
     23 C19        -0.4140   27.6350  103.9530 C.2       1 TFP         0.0085
     24 C20        -3.2600   27.9150  101.4680 C.3       1 TFP         0.0178
     25 C21         7.6550   26.5500  102.9310 C.3       1 TFP         0.3593
     26 F1          8.7010   25.9160  102.4710 F         1 TFP        -0.2337
     27 F2          8.0350   27.7510  103.2490 F         1 TFP        -0.2337
     28 F3          6.9830   26.7700  101.8490 F         1 TFP        -0.2337
     29 H1          8.4367   24.2933  104.1282 H         1 TFP         0.0781
     30 H2          7.4554   23.2888  106.1463 H         1 TFP         0.0645
     31 H3          5.4000   27.3250  104.1675 H         1 TFP         0.0665
     32 H4          4.8665   24.4892  110.5448 H         1 TFP         0.0537
     33 H5          3.7960   26.3233  111.7873 H         1 TFP         0.0498
     34 H6          2.8061   28.1943  110.5370 H         1 TFP         0.0536
     35 H7          2.9603   28.2650  108.0877 H         1 TFP         0.0506
     36 H8          4.3417   27.9930  104.9814 H         1 TFP         0.0560
     37 H9          3.2154   28.3204  106.3419 H         1 TFP         0.0560
     38 H10         1.4953   26.9834  105.3855 H         1 TFP         0.0308
     39 H11         2.6287   26.2032  104.2308 H         1 TFP         0.0308
     40 H12         2.7229   28.0852  102.8455 H         1 TFP         0.0534
     41 H13         2.1470   29.1905  104.1391 H         1 TFP         0.0534
     42 H14         1.2736   28.8870  101.2291 H         1 TFP         0.0658
     43 H15        -1.0330   28.7753  100.2375 H         1 TFP         0.0658
     44 H16        -2.5755   27.2143  103.9994 H         1 TFP         0.0658
     45 H17        -0.2468   27.3213  104.9824 H         1 TFP         0.0658
     46 H18        -3.2158   28.2724  100.4286 H         1 TFP         0.0497
     47 H19        -3.9510   28.5478  102.0443 H         1 TFP         0.0497
     48 H20        -3.6166   26.8745  101.4831 H         1 TFP         0.0497
@<TRIPOS>BOND
     1    1    2 ar 
     2    1    6 ar 
     3    1   25 1  
     4    2    3 ar 
     5    3    4 ar 
     6    4    5 ar 
     7    4    7 1  
     8    5    6 ar 
     9    5   14 1  
    10    7    8 1  
    11    8    9 ar 
    12    8   13 ar 
    13    9   10 ar 
    14   10   11 ar 
    15   11   12 ar 
    16   12   13 ar 
    17   13   14 1  
    18   14   15 1  
    19   15   16 1  
    20   16   17 1  
    21   17   18 1  
    22   18   19 1  
    23   18   23 1  
    24   19   20 2  
    25   20   21 1  
    26   21   22 1  
    27   21   24 1  
    28   22   23 2  
    29   25   26 1  
    30   25   27 1  
    31   25   28 1  
    32    2   29 1  
    33    3   30 1  
    34    6   31 1  
    35    9   32 1  
    36   10   33 1  
    37   11   34 1  
    38   12   35 1  
    39   15   36 1  
    40   15   37 1  
    41   16   38 1  
    42   16   39 1  
    43   17   40 1  
    44   17   41 1  
    45   19   42 1  
    46   20   43 1  
    47   22   44 1  
    48   23   45 1  
    49   24   46 1  
    50   24   47 1  
    51   24   48 1  
@<TRIPOS>SUBSTRUCTURE
     1 TFP         1

