### 
### Created by X-TOOL on Mon Sep 10 21:12:45 2018
### 

@<TRIPOS>MOLECULE
1ctt_ligand
   30    31     1     0     0
SMALL
GAST_HUCK


@<TRIPOS>ATOM
      1 N1         35.3030   48.9280    9.0090 N.am      1 DHZ        -0.1929
      2 C2         36.2150   48.0430    8.4400 C.2       1 DHZ         0.2910
      3 O2         37.3770   48.3610    8.1860 O.2       1 DHZ        -0.3907
      4 N3         35.7260   46.7830    8.1070 N.am      1 DHZ        -0.2644
      5 C4         34.3520   46.2460    8.5840 C.3       1 DHZ         0.0372
      6 C5         33.4730   47.4160    9.0320 C.2       1 DHZ        -0.0724
      7 C6         33.9940   48.6440    9.2560 C.2       1 DHZ         0.0168
      8 C1'        35.8860   50.3090    9.6320 C.3       1 DHZ         0.1938
      9 C2'        35.8290   51.7290    9.2300 C.3       1 DHZ         0.1361
     10 O2'        36.6940   51.9520    8.0850 O.3       1 DHZ        -0.3839
     11 C3'        36.0520   52.5330   10.4680 C.3       1 DHZ         0.1143
     12 O3'        37.4510   52.6540   10.5530 O.3       1 DHZ        -0.3864
     13 C4'        35.4790   51.5220   11.6050 C.3       1 DHZ         0.1133
     14 O4'        35.6150   50.1690   11.0250 O.3       1 DHZ        -0.3388
     15 C5'        34.0690   51.5920   11.9880 C.3       1 DHZ         0.0730
     16 O5'        33.3570   51.9390   10.7650 O.3       1 DHZ        -0.3924
     17 H1         36.2906   46.1931    7.5297 H         1 DHZ         0.1868
     18 H2         34.5011   45.5558    9.4274 H         1 DHZ         0.0584
     19 H3         33.8596   45.7135    7.7570 H         1 DHZ         0.0584
     20 H4         32.4051   47.2564    9.1735 H         1 DHZ         0.0230
     21 H5         33.3475   49.4291    9.6455 H         1 DHZ         0.0801
     22 H6         36.9674   50.1383    9.5247 H         1 DHZ         0.0964
     23 H7         34.8080   51.9538    8.8881 H         1 DHZ         0.0673
     24 H8         37.5875   51.7262    8.3158 H         1 DHZ         0.2101
     25 H9         35.5479   53.5107   10.4717 H         1 DHZ         0.0648
     26 H10        37.6777   53.1594   11.3248 H         1 DHZ         0.2100
     27 H11        36.0936   51.6373   12.5100 H         1 DHZ         0.0647
     28 H12        33.9158   52.3647   12.7558 H         1 DHZ         0.0584
     29 H13        33.7250   50.6203   12.3719 H         1 DHZ         0.0584
     30 H14        32.4269   52.0005   10.9480 H         1 DHZ         0.2095
@<TRIPOS>BOND
     1    1    2 am 
     2    1    7 am 
     3    1    8 1  
     4    2    3 2  
     5    2    4 am 
     6    4    5 1  
     7    5    6 1  
     8    7    6 2  
     9    8    9 1  
    10    8   14 1  
    11    9   10 1  
    12    9   11 1  
    13   11   12 1  
    14   11   13 1  
    15   13   14 1  
    16   13   15 1  
    17   15   16 1  
    18    4   17 1  
    19    5   18 1  
    20    5   19 1  
    21    6   20 1  
    22    7   21 1  
    23    8   22 1  
    24    9   23 1  
    25   10   24 1  
    26   11   25 1  
    27   12   26 1  
    28   13   27 1  
    29   15   28 1  
    30   15   29 1  
    31   16   30 1  
@<TRIPOS>SUBSTRUCTURE
     1 DHZ         1

