### 
### Created by X-TOOL on Mon Sep 10 21:12:45 2018
### 

@<TRIPOS>MOLECULE
1ctu_ligand
   31    32     1     0     0
SMALL
GAST_HUCK


@<TRIPOS>ATOM
      1 N1         35.1760   48.8550    8.8900 N.am      1 ZEB        -0.1928
      2 C2         36.0940   48.2050    8.1940 C.2       1 ZEB         0.2930
      3 O2         37.2580   48.5670    8.2660 O.2       1 ZEB        -0.3906
      4 N3         35.7390   47.1540    7.4380 N.am      1 ZEB        -0.2377
      5 C4         34.3800   46.6730    7.4230 C.3       1 ZEB         0.1465
      6 O4         33.6480   46.6550    5.9060 O.3       1 ZEB        -0.3654
      7 C5         33.4350   47.4890    8.2280 C.2       1 ZEB        -0.0433
      8 C6         33.8780   48.5480    8.9090 C.2       1 ZEB         0.0193
      9 C1'        35.6250   50.3520    9.3640 C.3       1 ZEB         0.1938
     10 C2'        35.6860   51.7990    8.9430 C.3       1 ZEB         0.1361
     11 O2'        36.7200   51.9350    7.9190 O.3       1 ZEB        -0.3839
     12 C3'        36.0410   52.3940   10.2510 C.3       1 ZEB         0.1143
     13 O3'        37.4110   52.6530   10.3730 O.3       1 ZEB        -0.3864
     14 C4'        35.6040   51.3710   11.2880 C.3       1 ZEB         0.1133
     15 O4'        35.8610   50.0870   10.7360 O.3       1 ZEB        -0.3388
     16 C5'        34.2540   51.5510   11.8270 C.3       1 ZEB         0.0730
     17 O5'        33.4930   51.9820   10.7060 O.3       1 ZEB        -0.3924
     18 H1         36.4286   46.6972    6.8760 H         1 ZEB         0.1895
     19 H2         34.4021   45.6481    7.8219 H         1 ZEB         0.0928
     20 H3         34.1432   46.0914    5.3233 H         1 ZEB         0.2143
     21 H4         32.3796   47.2228    8.2625 H         1 ZEB         0.0257
     22 H5         33.1810   49.1604    9.4792 H         1 ZEB         0.0801
     23 H6         36.6514   50.2123    8.9938 H         1 ZEB         0.0964
     24 H7         34.7269   52.1819    8.5641 H         1 ZEB         0.0673
     25 H8         36.4207   51.5313    7.1128 H         1 ZEB         0.2101
     26 H9         35.4902   53.3358   10.3913 H         1 ZEB         0.0648
     27 H10        37.5917   52.9936   11.2413 H         1 ZEB         0.2100
     28 H11        36.2765   51.4880   12.1506 H         1 ZEB         0.0647
     29 H12        34.2477   52.3128   12.6205 H         1 ZEB         0.0584
     30 H13        33.8620   50.6035   12.2252 H         1 ZEB         0.0584
     31 H14        32.5921   52.1238   10.9719 H         1 ZEB         0.2095
@<TRIPOS>BOND
     1    1    9 1  
     2    1    8 am 
     3    1    2 am 
     4    2    4 am 
     5    2    3 2  
     6    4    5 1  
     7    5    7 1  
     8    5    6 1  
     9    7    8 2  
    10    9   15 1  
    11    9   10 1  
    12   10   12 1  
    13   10   11 1  
    14   12   14 1  
    15   12   13 1  
    16   14   16 1  
    17   14   15 1  
    18   16   17 1  
    19    4   18 1  
    20    5   19 1  
    21    6   20 1  
    22    7   21 1  
    23    8   22 1  
    24    9   23 1  
    25   10   24 1  
    26   11   25 1  
    27   12   26 1  
    28   13   27 1  
    29   14   28 1  
    30   16   29 1  
    31   16   30 1  
    32   17   31 1  
@<TRIPOS>SUBSTRUCTURE
     1 ZEB         1

