### 
### Created by X-TOOL on Mon Sep 10 21:12:47 2018
### 

@<TRIPOS>MOLECULE
1czc_ligand
   15    14     1     0     0
SMALL
GAST_HUCK


@<TRIPOS>ATOM
      1 C1         24.7030   10.1530  -10.8530 C.2       1 GUA         0.0349
      2 C2         23.2970    9.9960  -11.3500 C.3       1 GUA         0.0017
      3 C3         22.9610   10.8420  -12.5170 C.3       1 GUA        -0.0298
      4 C4         23.6990   10.2330  -13.7050 C.3       1 GUA         0.0017
      5 C5         24.3590   11.2860  -14.5330 C.2       1 GUA         0.0349
      6 O1         25.5060   10.9490  -11.4040 O.co2     1 GUA        -0.5690
      7 O2         25.0040    9.4500   -9.8840 O.co2     1 GUA        -0.5690
      8 O3         23.8520   12.4080  -14.5190 O.co2     1 GUA        -0.5690
      9 O4         25.3790   11.0160  -15.2060 O.co2     1 GUA        -0.5690
     10 H1         22.6115   10.2545  -10.5295 H         1 GUA         0.0431
     11 H2         23.1484    8.9438  -11.6342 H         1 GUA         0.0431
     12 H3         23.2960   11.8761  -12.3484 H         1 GUA         0.0300
     13 H4         21.8757   10.8327  -12.6959 H         1 GUA         0.0300
     14 H5         22.9795    9.6843  -14.3305 H         1 GUA         0.0431
     15 H6         24.4657    9.5378  -13.3322 H         1 GUA         0.0431
@<TRIPOS>BOND
     1    1    2 1  
     2    1    6 ar 
     3    1    7 ar 
     4    2    3 1  
     5    3    4 1  
     6    4    5 1  
     7    5    8 ar 
     8    5    9 ar 
     9    2   10 1  
    10    2   11 1  
    11    3   12 1  
    12    3   13 1  
    13    4   14 1  
    14    4   15 1  
@<TRIPOS>SUBSTRUCTURE
     1 GUA         1

