### 
### Created by X-TOOL on Mon Sep 10 21:12:47 2018
### 

@<TRIPOS>MOLECULE
1cze_ligand
   12    11     1     0     0
SMALL
GAST_HUCK


@<TRIPOS>ATOM
      1 C1         24.5500   10.2780  -10.9290 C.2       1 SIN         0.0364
      2 O1         24.1320   10.1920   -9.7980 O.co2     1 SIN        -0.5689
      3 O2         25.6880   10.6540  -11.1490 O.co2     1 SIN        -0.5689
      4 C2         23.6390    9.9020  -12.1110 C.3       1 SIN         0.0117
      5 C3         24.2590   10.0180  -13.5320 C.3       1 SIN         0.0117
      6 C4         24.2680   11.3430  -14.3080 C.2       1 SIN         0.0364
      7 O3         24.7840   11.3420  -15.3880 O.co2     1 SIN        -0.5689
      8 O4         23.7700   12.3310  -13.8240 O.co2     1 SIN        -0.5689
      9 H1         22.7585   10.5604  -12.0764 H         1 SIN         0.0448
     10 H2         23.3222    8.8582  -11.9694 H         1 SIN         0.0448
     11 H3         23.7214    9.2949  -14.1629 H         1 SIN         0.0448
     12 H4         25.3106    9.7100  -13.4357 H         1 SIN         0.0448
@<TRIPOS>BOND
     1    1    2 ar 
     2    1    3 ar 
     3    1    4 1  
     4    4    5 1  
     5    5    6 1  
     6    6    7 ar 
     7    6    8 ar 
     8    4    9 1  
     9    4   10 1  
    10    5   11 1  
    11    5   12 1  
@<TRIPOS>SUBSTRUCTURE
     1 SIN         1

