### 
### Created by X-TOOL on Fri Nov 18 12:33:23 2016
### 

@<TRIPOS>MOLECULE
1d1p_ligand
   35    35     1     0     0
SMALL
GAST_HUCK


@<TRIPOS>ATOM
      1 N1         -4.1490    2.2440   29.2940 N.4       1 EPE         0.2439
      2 C2         -4.7340    2.5950   28.0110 C.3       1 EPE         0.0095
      3 C3         -6.0290    3.3870   28.3020 C.3       1 EPE         0.0095
      4 N4         -6.9950    2.5910   29.1150 N.4       1 EPE         0.2443
      5 C5         -6.3200    2.1380   30.3750 C.3       1 EPE         0.0095
      6 C6         -5.0370    1.3620   30.0780 C.3       1 EPE         0.0095
      7 C7         -8.2130    3.4030   29.3810 C.3       1 EPE        -0.0078
      8 C8         -9.2680    2.7150   30.2100 C.3       1 EPE         0.0841
      9 O8         -9.7770    1.4870   29.6800 O.3       1 EPE        -0.3898
     10 C9         -2.7100    2.0330   29.4200 C.3       1 EPE        -0.0092
     11 C10        -2.0160    0.7880   28.9150 C.3       1 EPE         0.1322
     12 S          -0.3250    1.0900   29.4660 S.o2      1 EPE         0.0848
     13 O1S        -0.4120    1.8640   30.7390 O.3       1 EPE        -0.2538
     14 O2S         0.3470   -0.1810   29.6400 O.2       1 EPE        -0.1472
     15 O3S         0.2900    1.9030   28.4270 O.2       1 EPE        -0.1472
     16 H1         -4.2402    3.1161   29.7911 H         1 EPE         0.2038
     17 H2         -4.9693    1.6836   27.4418 H         1 EPE         0.0868
     18 H3         -4.0333    3.2168   27.4345 H         1 EPE         0.0868
     19 H4         -6.5042    3.6557   27.3470 H         1 EPE         0.0868
     20 H5         -5.7699    4.3030   28.8532 H         1 EPE         0.0868
     21 H6         -7.2685    1.7747   28.5907 H         1 EPE         0.2038
     22 H7         -7.0085    1.4883   30.9352 H         1 EPE         0.0868
     23 H8         -6.0711    3.0198   30.9836 H         1 EPE         0.0868
     24 H9         -4.5453    1.0770   31.0198 H         1 EPE         0.0868
     25 H10        -5.2724    0.4570   29.4987 H         1 EPE         0.0868
     26 H11        -8.6614    3.6729   28.4135 H         1 EPE         0.0837
     27 H12        -7.9052    4.3169   29.9102 H         1 EPE         0.0837
     28 H13       -10.1136    3.4094   30.3232 H         1 EPE         0.0610
     29 H14        -8.8341    2.5014   31.1980 H         1 EPE         0.0610
     30 H15       -10.4314    1.1351   30.2719 H         1 EPE         0.2096
     31 H16        -2.4878    2.0893   30.4958 H         1 EPE         0.0831
     32 H17        -2.2326    2.8780   28.9022 H         1 EPE         0.0831
     33 H18        -2.0758    0.7082   27.8195 H         1 EPE         0.0579
     34 H19        -2.4337   -0.1211   29.3723 H         1 EPE         0.0579
     35 H20        -0.8584    2.6870   30.5780 H         1 EPE         0.2445
@<TRIPOS>BOND
     1    1    2 1  
     2    1    6 1  
     3    1   10 1  
     4    2    3 1  
     5    3    4 1  
     6    4    5 1  
     7    4    7 1  
     8    5    6 1  
     9    7    8 1  
    10    8    9 1  
    11   10   11 1  
    12   11   12 1  
    13   12   13 1  
    14   12   14 2  
    15   12   15 2  
    16    1   16 1  
    17    2   17 1  
    18    2   18 1  
    19    3   19 1  
    20    3   20 1  
    21    4   21 1  
    22    5   22 1  
    23    5   23 1  
    24    6   24 1  
    25    6   25 1  
    26    7   26 1  
    27    7   27 1  
    28    8   28 1  
    29    8   29 1  
    30    9   30 1  
    31   10   31 1  
    32   10   32 1  
    33   11   33 1  
    34   11   34 1  
    35   13   35 1  
@<TRIPOS>SUBSTRUCTURE
     1 EPE         1

