### 
### Created by X-TOOL on Mon Sep 10 21:12:47 2018
### 

@<TRIPOS>MOLECULE
1d2s_ligand
   51    54     1     0     0
SMALL
GAST_HUCK


@<TRIPOS>ATOM
      1 C1         24.1170   10.0290   30.8710 C.3       1 DHT        -0.0310
      2 C2         25.6170   10.2080   30.7070 C.3       1 DHT         0.0216
      3 C3         25.9240   11.6880   30.9260 C.2       1 DHT         0.1053
      4 O3         26.7490   12.2160   30.1970 O.2       1 DHT        -0.3916
      5 C4         25.3280   12.3550   32.0980 C.3       1 DHT         0.0244
      6 C5         23.8150   12.1130   32.2100 C.3       1 DHT        -0.0194
      7 C6         23.1680   12.8120   33.4110 C.3       1 DHT        -0.0473
      8 C7         21.6550   12.6940   33.3480 C.3       1 DHT        -0.0493
      9 C8         21.2150   11.2150   33.2530 C.3       1 DHT        -0.0343
     10 C9         21.9310   10.4950   32.0790 C.3       1 DHT        -0.0320
     11 C10        23.4820   10.5860   32.1520 C.3       1 DHT        -0.0219
     12 C11        21.3950    9.0530   31.9520 C.3       1 DHT        -0.0489
     13 C12        19.8950    8.8690   31.9120 C.3       1 DHT        -0.0447
     14 C13        19.2090    9.6180   33.0450 C.3       1 DHT        -0.0030
     15 C14        19.7140   11.0760   33.0650 C.3       1 DHT        -0.0301
     16 C15        18.8010   11.7140   34.1110 C.3       1 DHT        -0.0470
     17 C16        17.4270   11.0930   33.8070 C.3       1 DHT        -0.0261
     18 C17        17.7320    9.9090   32.8670 C.3       1 DHT         0.0609
     19 O17        16.8630    8.8090   33.1480 O.3       1 DHT        -0.3912
     20 C18        19.4690    8.9360   34.4120 C.3       1 DHT        -0.0569
     21 C19        24.0060    9.8790   33.4240 C.3       1 DHT        -0.0588
     22 H1         23.9067    8.9498   30.8393 H         1 DHT         0.0296
     23 H2         23.6292   10.5229   30.0177 H         1 DHT         0.0296
     24 H3         25.9238    9.9056   29.6949 H         1 DHT         0.0494
     25 H4         26.1524    9.5985   31.4499 H         1 DHT         0.0494
     26 H5         25.5064   13.4373   32.0159 H         1 DHT         0.0497
     27 H6         25.8143   11.9711   33.0069 H         1 DHT         0.0497
     28 H7         23.3627   12.5657   31.3153 H         1 DHT         0.0331
     29 H8         23.4480   13.8757   33.4040 H         1 DHT         0.0270
     30 H9         23.5286   12.3440   34.3389 H         1 DHT         0.0270
     31 H10        21.2891   13.2351   32.4630 H         1 DHT         0.0268
     32 H11        21.2219   13.1399   34.2555 H         1 DHT         0.0268
     33 H12        21.4947   10.7173   34.1932 H         1 DHT         0.0306
     34 H13        21.6403   11.0222   31.1584 H         1 DHT         0.0309
     35 H14        21.7744    8.4830   32.8129 H         1 DHT         0.0268
     36 H15        21.8041    8.6296   31.0228 H         1 DHT         0.0268
     37 H16        19.6642    7.7972   32.0013 H         1 DHT         0.0271
     38 H17        19.5143    9.2474   30.9519 H         1 DHT         0.0271
     39 H18        19.4923   11.5400   32.0926 H         1 DHT         0.0310
     40 H19        18.7734   12.8076   33.9956 H         1 DHT         0.0269
     41 H20        19.1312   11.4609   35.1293 H         1 DHT         0.0269
     42 H21        16.7722   11.8240   33.3102 H         1 DHT         0.0290
     43 H22        16.9474   10.7403   34.7320 H         1 DHT         0.0290
     44 H23        17.5577   10.2136   31.8245 H         1 DHT         0.0599
     45 H24        17.0644    8.0898   32.5609 H         1 DHT         0.2098
     46 H25        20.5446    8.7334   34.5220 H         1 DHT         0.0236
     47 H26        18.9107    7.9895   34.4617 H         1 DHT         0.0236
     48 H27        19.1364    9.6009   35.2227 H         1 DHT         0.0236
     49 H28        25.1029    9.9531   33.4591 H         1 DHT         0.0235
     50 H29        23.7106    8.8196   33.4028 H         1 DHT         0.0235
     51 H30        23.5772   10.3615   34.3147 H         1 DHT         0.0235
@<TRIPOS>BOND
     1    1    2 1  
     2    1   11 1  
     3    2    3 1  
     4    3    4 2  
     5    3    5 1  
     6    5    6 1  
     7    6    7 1  
     8    6   11 1  
     9    7    8 1  
    10    8    9 1  
    11    9   10 1  
    12    9   15 1  
    13   10   11 1  
    14   10   12 1  
    15   11   21 1  
    16   12   13 1  
    17   13   14 1  
    18   14   15 1  
    19   14   18 1  
    20   14   20 1  
    21   15   16 1  
    22   16   17 1  
    23   17   18 1  
    24   18   19 1  
    25    1   22 1  
    26    1   23 1  
    27    2   24 1  
    28    2   25 1  
    29    5   26 1  
    30    5   27 1  
    31    6   28 1  
    32    7   29 1  
    33    7   30 1  
    34    8   31 1  
    35    8   32 1  
    36    9   33 1  
    37   10   34 1  
    38   12   35 1  
    39   12   36 1  
    40   13   37 1  
    41   13   38 1  
    42   15   39 1  
    43   16   40 1  
    44   16   41 1  
    45   17   42 1  
    46   17   43 1  
    47   18   44 1  
    48   19   45 1  
    49   20   46 1  
    50   20   47 1  
    51   20   48 1  
    52   21   49 1  
    53   21   50 1  
    54   21   51 1  
@<TRIPOS>SUBSTRUCTURE
     1 DHT         1

