### 
### Created by X-TOOL on Mon Sep 10 21:12:47 2018
### 

@<TRIPOS>MOLECULE
1d3p_ligand
   78    83     1     0     0
SMALL
GAST_HUCK


@<TRIPOS>ATOM
      1 C1        -23.9940  -30.7750   24.3250 C.ar      1 BT3         0.0820
      2 C2        -24.3270  -32.0090   23.5060 C.ar      1 BT3        -0.0206
      3 C3        -23.4380  -32.3890   22.3880 C.ar      1 BT3         0.0279
      4 C4        -22.2370  -31.5650   22.0390 C.ar      1 BT3        -0.0206
      5 C5        -21.9300  -30.3610   22.8010 C.ar      1 BT3        -0.0690
      6 C6        -22.7970  -29.9500   23.9710 C.ar      1 BT3        -0.0390
      7 S1        -23.4720  -33.7660   21.3860 S.3       1 BT3        -0.0517
      8 C8        -22.0890  -33.3730   20.4860 C.2       1 BT3         0.0320
      9 C9        -21.4850  -32.1650   20.9830 C.2       1 BT3        -0.0281
     10 C7        -20.0220  -31.7720   20.6760 C.3       1 BT3         0.0015
     11 C10       -21.5670  -34.2480   19.4080 C.ar      1 BT3        -0.0036
     12 C12       -20.9210  -33.7190   18.1810 C.ar      1 BT3        -0.0483
     13 C14       -20.2840  -34.6560   17.1910 C.ar      1 BT3        -0.0081
     14 C16       -20.4120  -36.1460   17.5260 C.ar      1 BT3         0.1617
     15 N1        -21.0100  -36.6180   18.7200 N.ar      1 BT3        -0.2774
     16 C20       -21.5800  -35.7130   19.6340 C.ar      1 BT3         0.0027
     17 O2        -20.2720  -36.9910   16.5030 O.3       1 BT3        -0.2957
     18 C24       -19.2670  -38.0560   16.8160 C.3       1 BT3         0.1132
     19 C11       -18.9900  -33.8760   22.0940 C.ar      1 BT3        -0.0670
     20 C13       -18.8250  -32.6320   21.2430 C.ar      1 BT3        -0.0448
     21 C15       -17.4020  -32.2260   20.9170 C.ar      1 BT3        -0.0670
     22 C32       -16.2300  -33.0930   21.3540 C.ar      1 BT3        -0.0392
     23 C19       -16.4900  -34.3800   22.0930 C.ar      1 BT3         0.0845
     24 C21       -17.8510  -34.7010   22.5430 C.ar      1 BT3        -0.0392
     25 O3        -15.4370  -35.2690   22.1850 O.3       1 BT3        -0.3170
     26 C25       -15.2970  -36.3530   23.1420 C.3       1 BT3         0.1087
     27 C17       -13.3210  -33.9030   26.1030 C.3       1 BT3        -0.0077
     28 C23       -14.3200  -34.1770   27.1840 C.3       1 BT3        -0.0077
     29 C26       -15.1360  -35.4110   26.7880 C.3       1 BT3        -0.0316
     30 N2        -14.5280  -35.7720   25.4690 N.4       1 BT3         0.2371
     31 C27       -13.7400  -34.6460   24.8620 C.3       1 BT3        -0.0316
     32 C22       -18.3920  -37.5470   13.8330 C.3       1 BT3        -0.0316
     33 N3        -17.7740  -38.3120   14.9930 N.4       1 BT3         0.2372
     34 C28       -16.5970  -39.1690   14.5220 C.3       1 BT3        -0.0316
     35 C29       -16.1140  -38.3340   13.3300 C.3       1 BT3        -0.0077
     36 C30       -17.1020  -37.1810   13.1160 C.3       1 BT3        -0.0077
     37 C33       -15.6990  -36.0210   24.5810 C.3       1 BT3        -0.0037
     38 C34       -19.0660  -38.8860   15.5360 C.3       1 BT3        -0.0030
     39 O1        -24.6930  -30.4970   25.4850 O.3       1 BT3        -0.3351
     40 H1        -25.2039  -32.6027   23.7377 H         1 BT3         0.0487
     41 H2        -21.0737  -29.7552   22.5273 H         1 BT3         0.0568
     42 H3        -22.5530  -29.0653   24.5479 H         1 BT3         0.0504
     43 H4        -19.8837  -30.7495   21.0574 H         1 BT3         0.0538
     44 H5        -19.9189  -31.7720   19.5809 H         1 BT3         0.0538
     45 H6        -20.9080  -32.6508   17.9969 H         1 BT3         0.0674
     46 H7        -19.7710  -34.3023   16.3039 H         1 BT3         0.0628
     47 H8        -22.0443  -36.1000   20.5338 H         1 BT3         0.0758
     48 H9        -19.6400  -38.6990   17.6268 H         1 BT3         0.0673
     49 H10       -18.3148  -37.5972   17.1205 H         1 BT3         0.0673
     50 H11       -19.9906  -34.1734   22.3863 H         1 BT3         0.0534
     51 H12       -17.2171  -31.3100   20.3677 H         1 BT3         0.0534
     52 H13       -15.2137  -32.7862   21.1348 H         1 BT3         0.0526
     53 H14       -18.0189  -35.5432   23.2044 H         1 BT3         0.0526
     54 H15       -14.2420  -36.6644   23.1487 H         1 BT3         0.0665
     55 H16       -15.9241  -37.1895   22.7999 H         1 BT3         0.0665
     56 H17       -12.3259  -34.2464   26.4222 H         1 BT3         0.0319
     57 H18       -13.2870  -32.8234   25.8948 H         1 BT3         0.0319
     58 H19       -13.7974  -34.3663   28.1332 H         1 BT3         0.0319
     59 H20       -14.9886  -33.3112   27.2998 H         1 BT3         0.0319
     60 H21       -15.0147  -36.2228   27.5202 H         1 BT3         0.0814
     61 H22       -16.2037  -35.1680   26.6834 H         1 BT3         0.0814
     62 H23       -13.9466  -36.5905   25.5589 H         1 BT3         0.2034
     63 H24       -14.3640  -34.0212   24.2061 H         1 BT3         0.0814
     64 H25       -12.8713  -35.0163   24.2979 H         1 BT3         0.0814
     65 H26       -18.9496  -36.6599   14.1678 H         1 BT3         0.0814
     66 H27       -19.0467  -38.1806   13.2167 H         1 BT3         0.0814
     67 H28       -17.3942  -37.6810   15.6812 H         1 BT3         0.2034
     68 H29       -16.9224  -40.1727   14.2112 H         1 BT3         0.0814
     69 H30       -15.8220  -39.2585   15.2975 H         1 BT3         0.0814
     70 H31       -15.1123  -37.9310   13.5401 H         1 BT3         0.0319
     71 H32       -16.0747  -38.9621   12.4278 H         1 BT3         0.0319
     72 H33       -16.6903  -36.2508   13.5346 H         1 BT3         0.0319
     73 H34       -17.2946  -37.0458   12.0415 H         1 BT3         0.0319
     74 H35       -16.2745  -36.8654   24.9881 H         1 BT3         0.0841
     75 H36       -16.3288  -35.1192   24.5701 H         1 BT3         0.0841
     76 H37       -19.8967  -38.7404   14.8298 H         1 BT3         0.0841
     77 H38       -18.9631  -39.9569   15.7653 H         1 BT3         0.0841
     78 H39       -25.4199  -31.1029   25.5683 H         1 BT3         0.2481
@<TRIPOS>BOND
     1    1   39 1  
     2    1    6 ar 
     3    1    2 ar 
     4    2    3 ar 
     5    3    7 1  
     6    3    4 ar 
     7    4    9 1  
     8    4    5 ar 
     9    5    6 ar 
    10    9   10 1  
    11    9    8 2  
    12    8   11 1  
    13    8    7 1  
    14   11   16 ar 
    15   11   12 ar 
    16   12   13 ar 
    17   13   14 ar 
    18   14   17 1  
    19   14   15 ar 
    20   15   16 ar 
    21   17   18 1  
    22   18   38 1  
    23   38   33 1  
    24   33   34 1  
    25   33   32 1  
    26   32   36 1  
    27   36   35 1  
    28   35   34 1  
    29   10   20 1  
    30   20   19 ar 
    31   20   21 ar 
    32   21   22 ar 
    33   22   23 ar 
    34   23   25 1  
    35   23   24 ar 
    36   24   19 ar 
    37   25   26 1  
    38   26   37 1  
    39   37   30 1  
    40   30   31 1  
    41   30   29 1  
    42   29   28 1  
    43   28   27 1  
    44   27   31 1  
    45    2   40 1  
    46    5   41 1  
    47    6   42 1  
    48   10   43 1  
    49   10   44 1  
    50   12   45 1  
    51   13   46 1  
    52   16   47 1  
    53   18   48 1  
    54   18   49 1  
    55   19   50 1  
    56   21   51 1  
    57   22   52 1  
    58   24   53 1  
    59   26   54 1  
    60   26   55 1  
    61   27   56 1  
    62   27   57 1  
    63   28   58 1  
    64   28   59 1  
    65   29   60 1  
    66   29   61 1  
    67   30   62 1  
    68   31   63 1  
    69   31   64 1  
    70   32   65 1  
    71   32   66 1  
    72   33   67 1  
    73   34   68 1  
    74   34   69 1  
    75   35   70 1  
    76   35   71 1  
    77   36   72 1  
    78   36   73 1  
    79   37   74 1  
    80   37   75 1  
    81   38   76 1  
    82   38   77 1  
    83   39   78 1  
@<TRIPOS>SUBSTRUCTURE
     1 BT3         1

