### 
### Created by X-TOOL on Mon Sep 10 21:12:47 2018
### 

@<TRIPOS>MOLECULE
1d3q_ligand
   78    83     1     0     0
SMALL
GAST_HUCK


@<TRIPOS>ATOM
      1 C1        -24.4230  -31.4070   24.2210 C.ar      1 BT2        -0.0706
      2 C2        -24.6650  -32.4170   23.0810 C.ar      1 BT2        -0.0503
      3 C3        -23.6790  -32.6080   21.9900 C.ar      1 BT2         0.0347
      4 C4        -22.4190  -31.8410   21.9370 C.ar      1 BT2        -0.0149
      5 C5        -22.1770  -30.8350   22.9600 C.ar      1 BT2        -0.0652
      6 C6        -23.1530  -30.5660   24.1330 C.ar      1 BT2        -0.0716
      7 S1        -23.6470  -33.8000   20.8240 S.3       1 BT2        -0.0465
      8 C8        -22.0880  -33.4520   20.1540 C.2       1 BT2         0.0303
      9 C9        -21.5320  -32.3500   20.8900 C.2       1 BT2        -0.0250
     10 C7        -20.0330  -31.8890   20.7210 C.3       1 BT2         0.0011
     11 C10       -21.4260  -34.1300   18.9550 C.ar      1 BT2        -0.0252
     12 C12       -20.6730  -33.4050   17.8610 C.ar      1 BT2        -0.0646
     13 C14       -19.8730  -34.1180   16.7580 C.ar      1 BT2        -0.0339
     14 C16       -19.8620  -35.6420   16.7600 C.ar      1 BT2         0.0908
     15 C18       -20.6000  -36.3640   17.9070 C.ar      1 BT2        -0.0339
     16 C20       -21.3850  -35.5920   18.9530 C.ar      1 BT2        -0.0646
     17 O2        -19.2780  -36.3290   15.6790 O.3       1 BT2        -0.3130
     18 C24       -19.7400  -37.7380   15.4470 C.3       1 BT2         0.1102
     19 C11       -19.0820  -34.1270   22.0000 C.ar      1 BT2        -0.0671
     20 C13       -18.8900  -32.7840   21.3360 C.ar      1 BT2        -0.0453
     21 C15       -17.4420  -32.2930   21.2360 C.ar      1 BT2        -0.0671
     22 C32       -16.2420  -33.1290   21.7230 C.ar      1 BT2        -0.0393
     23 C19       -16.4770  -34.5320   22.2930 C.ar      1 BT2         0.0845
     24 C21       -17.9200  -34.9490   22.4970 C.ar      1 BT2        -0.0393
     25 O3        -15.4510  -35.4620   22.4970 O.3       1 BT2        -0.3170
     26 C25       -15.4980  -36.3170   23.6870 C.3       1 BT2         0.1087
     27 C17       -13.6880  -34.0420   27.4530 C.3       1 BT2        -0.0077
     28 C23       -13.3740  -33.1640   26.2400 C.3       1 BT2        -0.0077
     29 C26       -13.5440  -33.9740   24.9710 C.3       1 BT2        -0.0316
     30 N2        -14.0910  -35.3050   25.4950 N.4       1 BT2         0.2371
     31 C27       -14.0850  -35.4630   26.9900 C.3       1 BT2        -0.0316
     32 C22       -16.5820  -39.7150   14.1100 C.3       1 BT2        -0.0316
     33 N3        -17.5190  -39.0810   15.1530 N.4       1 BT2         0.2371
     34 C28       -17.7980  -39.9780   16.3550 C.3       1 BT2        -0.0316
     35 C29       -17.3290  -41.3500   15.8450 C.3       1 BT2        -0.0077
     36 C30       -16.7400  -41.2040   14.4320 C.3       1 BT2        -0.0077
     37 C33       -14.1860  -36.4010   24.4910 C.3       1 BT2        -0.0037
     38 C34       -18.8370  -38.6190   14.5710 C.3       1 BT2        -0.0034
     39 H1        -25.1205  -31.2999   25.0439 H         1 BT2         0.0568
     40 H2        -25.5779  -33.0014   23.0771 H         1 BT2         0.0567
     41 H3        -21.2697  -30.2450   22.8985 H         1 BT2         0.0574
     42 H4        -22.9394  -29.8012   24.8709 H         1 BT2         0.0555
     43 H5        -19.9469  -30.8935   21.1808 H         1 BT2         0.0532
     44 H6        -19.8380  -31.8123   19.6412 H         1 BT2         0.0532
     45 H7        -20.6989  -32.3213   17.8544 H         1 BT2         0.0575
     46 H8        -19.3347  -33.5552   16.0040 H         1 BT2         0.0543
     47 H9        -20.5571  -37.4455   17.9674 H         1 BT2         0.0543
     48 H10       -21.9279  -36.1375   19.7164 H         1 BT2         0.0575
     49 H11       -20.7285  -37.6910   14.9668 H         1 BT2         0.0668
     50 H12       -19.8320  -38.2256   16.4287 H         1 BT2         0.0668
     51 H13       -20.0877  -34.5122   22.1232 H         1 BT2         0.0533
     52 H14       -17.2535  -31.3166   20.8046 H         1 BT2         0.0533
     53 H15       -15.2372  -32.7266   21.6626 H         1 BT2         0.0526
     54 H16       -18.1246  -35.8754   23.0213 H         1 BT2         0.0526
     55 H17       -15.7641  -37.3343   23.3640 H         1 BT2         0.0665
     56 H18       -16.2809  -35.9276   24.3544 H         1 BT2         0.0665
     57 H19       -14.5203  -33.5976   28.0185 H         1 BT2         0.0319
     58 H20       -12.7987  -34.1043   28.0974 H         1 BT2         0.0319
     59 H21       -12.3373  -32.8025   26.3078 H         1 BT2         0.0319
     60 H22       -14.0613  -32.3054   26.2214 H         1 BT2         0.0319
     61 H23       -12.5813  -34.1148   24.4578 H         1 BT2         0.0814
     62 H24       -14.2579  -33.4935   24.2859 H         1 BT2         0.0814
     63 H25       -15.0677  -35.0616   25.4424 H         1 BT2         0.2034
     64 H26       -15.0790  -35.7448   27.3675 H         1 BT2         0.0814
     65 H27       -13.3451  -36.2109   27.3113 H         1 BT2         0.0814
     66 H28       -15.5427  -39.3814   14.2465 H         1 BT2         0.0814
     67 H29       -16.9083  -39.4878   13.0844 H         1 BT2         0.0814
     68 H30       -17.0430  -38.2624   15.4985 H         1 BT2         0.2034
     69 H31       -18.8691  -39.9894   16.6053 H         1 BT2         0.0814
     70 H32       -17.2193  -39.6593   17.2345 H         1 BT2         0.0814
     71 H33       -18.1844  -42.0409   15.8149 H         1 BT2         0.0319
     72 H34       -16.5595  -41.7484   16.5225 H         1 BT2         0.0319
     73 H35       -15.7576  -41.6971   14.3891 H         1 BT2         0.0319
     74 H36       -17.4165  -41.6700   13.7004 H         1 BT2         0.0319
     75 H37       -13.3359  -36.3249   23.7971 H         1 BT2         0.0841
     76 H38       -14.1478  -37.3684   25.0131 H         1 BT2         0.0841
     77 H39       -18.6101  -38.0494   13.6577 H         1 BT2         0.0841
     78 H40       -19.4125  -39.5189   14.3084 H         1 BT2         0.0841
@<TRIPOS>BOND
     1    2    1 ar 
     2    6    1 ar 
     3    3    2 ar 
     4    4    3 ar 
     5    7    3 1  
     6    4    5 ar 
     7    9    4 1  
     8    5    6 ar 
     9    8    7 1  
    10    8    9 2  
    11   11    8 1  
    12    9   10 1  
    13   10   20 1  
    14   12   11 ar 
    15   16   11 ar 
    16   13   12 ar 
    17   14   13 ar 
    18   14   15 ar 
    19   17   14 1  
    20   15   16 ar 
    21   18   17 1  
    22   38   18 1  
    23   20   19 ar 
    24   19   24 ar 
    25   20   21 ar 
    26   21   22 ar 
    27   22   23 ar 
    28   24   23 ar 
    29   23   25 1  
    30   25   26 1  
    31   26   37 1  
    32   27   28 1  
    33   31   27 1  
    34   29   28 1  
    35   30   29 1  
    36   30   31 1  
    37   37   30 1  
    38   33   32 1  
    39   32   36 1  
    40   33   34 1  
    41   33   38 1  
    42   34   35 1  
    43   35   36 1  
    44    1   39 1  
    45    2   40 1  
    46    5   41 1  
    47    6   42 1  
    48   10   43 1  
    49   10   44 1  
    50   12   45 1  
    51   13   46 1  
    52   15   47 1  
    53   16   48 1  
    54   18   49 1  
    55   18   50 1  
    56   19   51 1  
    57   21   52 1  
    58   22   53 1  
    59   24   54 1  
    60   26   55 1  
    61   26   56 1  
    62   27   57 1  
    63   27   58 1  
    64   28   59 1  
    65   28   60 1  
    66   29   61 1  
    67   29   62 1  
    68   30   63 1  
    69   31   64 1  
    70   31   65 1  
    71   32   66 1  
    72   32   67 1  
    73   33   68 1  
    74   34   69 1  
    75   34   70 1  
    76   35   71 1  
    77   35   72 1  
    78   36   73 1  
    79   36   74 1  
    80   37   75 1  
    81   37   76 1  
    82   38   77 1  
    83   38   78 1  
@<TRIPOS>SUBSTRUCTURE
     1 BT2         1

