### 
### Created by X-TOOL on Mon Sep 10 21:12:49 2018
### 

@<TRIPOS>MOLECULE
1d4h_ligand
   83    87     1     0     0
SMALL
GAST_HUCK


@<TRIPOS>ATOM
      1 C01        13.8830   22.9830    5.0040 C.3       1 BEH         0.1289
      2 O02        14.3650   22.6670    3.6600 O.3       1 BEH        -0.3840
      3 C03        14.9600   22.7210    6.0280 C.3       1 BEH         0.1779
      4 O04        14.5170   23.0660    7.3690 O.3       1 BEH        -0.3411
      5 C05        15.6190   23.4100    8.2480 C.3       1 BEH         0.0851
      6 C06        16.3260   22.2030    8.8480 C.ar      1 BEH        -0.0173
      7 C07        15.5640   21.2040    9.5830 C.ar      1 BEH        -0.0581
      8 C08        16.2100   20.0020   10.0420 C.ar      1 BEH        -0.0685
      9 C09        17.6090   19.7970    9.7840 C.ar      1 BEH        -0.0687
     10 C10        18.3730   20.7890    9.0700 C.ar      1 BEH        -0.0685
     11 C11        17.7390   21.9900    8.6030 C.ar      1 BEH        -0.0581
     12 C12        15.1550   21.2440    5.9140 C.2       1 BEH         0.2101
     13 O13        14.2250   20.4730    6.1690 O.2       1 BEH        -0.3940
     14 N14        16.3950   20.7770    5.5250 N.am      1 BEH        -0.2688
     15 C15        16.6620   19.3630    5.3800 C.3       1 BEH         0.1007
     16 C16        16.5800   18.8980    3.9460 C.ar      1 BEH        -0.0133
     17 C17        15.7100   19.3340    2.8860 C.ar      1 BEH        -0.0646
     18 C18        15.8260   18.7360    1.5760 C.ar      1 BEH        -0.0754
     19 C19        16.8120   17.7130    1.3370 C.ar      1 BEH        -0.0755
     20 C20        17.6910   17.2750    2.3880 C.ar      1 BEH        -0.0667
     21 C21        17.5630   17.8790    3.6860 C.ar      1 BEH        -0.0361
     22 C22        18.3590   17.6050    4.9160 C.3       1 BEH         0.0085
     23 C23        18.0710   18.8740    5.7570 C.3       1 BEH         0.0951
     24 O24        19.0070   19.9050    5.4410 O.3       1 BEH        -0.3857
     25 C31        13.3530   24.3940    5.0200 C.3       1 BEH         0.1289
     26 O32        14.3870   25.2310    4.4320 O.3       1 BEH        -0.3840
     27 C33        12.0260   24.5700    4.2790 C.3       1 BEH         0.1779
     28 O34        11.8090   23.5440    3.2680 O.3       1 BEH        -0.3411
     29 C35        11.1600   24.0600    2.0790 C.3       1 BEH         0.0851
     30 C36         9.6430   24.1590    2.1710 C.ar      1 BEH        -0.0173
     31 C37         8.9720   25.3820    1.7890 C.ar      1 BEH        -0.0581
     32 C38         7.5430   25.5030    1.9360 C.ar      1 BEH        -0.0685
     33 C39         6.7800   24.4030    2.4590 C.ar      1 BEH        -0.0687
     34 C40         7.4370   23.1770    2.8360 C.ar      1 BEH        -0.0685
     35 C41         8.8640   23.0480    2.6930 C.ar      1 BEH        -0.0581
     36 C42        10.9120   24.5110    5.3070 C.2       1 BEH         0.2099
     37 O43        10.7420   23.5120    6.0230 O.2       1 BEH        -0.3940
     38 N44        10.0410   25.5750    5.3910 N.am      1 BEH        -0.2734
     39 C45         8.9490   25.5690    6.3440 C.3       1 BEH         0.0645
     40 C46         8.9270   26.5240    7.4150 C.ar      1 BEH        -0.0210
     41 C47         7.7390   27.3260    7.6450 C.ar      1 BEH        -0.0584
     42 C48         7.7190   28.2790    8.7250 C.ar      1 BEH        -0.0685
     43 C49         8.8720   28.4340    9.5710 C.ar      1 BEH        -0.0687
     44 C50        10.0540   27.6410    9.3460 C.ar      1 BEH        -0.0685
     45 C51        10.0840   26.6870    8.2700 C.ar      1 BEH        -0.0584
     46 H1         13.0431   22.3112    5.2348 H         1 BEH         0.0674
     47 H2         13.6754   22.8375    3.0293 H         1 BEH         0.2102
     48 H3         15.8820   23.2708    5.7880 H         1 BEH         0.0870
     49 H4         15.2272   24.0266    9.0704 H         1 BEH         0.0726
     50 H5         16.3539   23.9913    7.6717 H         1 BEH         0.0726
     51 H6         14.5111   21.3649    9.7846 H         1 BEH         0.0557
     52 H7         15.6421   19.2526   10.5814 H         1 BEH         0.0599
     53 H8         18.0928   18.8903   10.1287 H         1 BEH         0.0559
     54 H9         19.4289   20.6281    8.8850 H         1 BEH         0.0599
     55 H10        18.3159   22.7359    8.0683 H         1 BEH         0.0557
     56 H11        17.1266   21.4329    5.3389 H         1 BEH         0.1881
     57 H12        15.9188   18.8323    5.9932 H         1 BEH         0.0732
     58 H13        14.9720   20.1065    3.0693 H         1 BEH         0.0538
     59 H14        15.1717   19.0567    0.7735 H         1 BEH         0.0541
     60 H15        16.8925   17.2675    0.3521 H         1 BEH         0.0541
     61 H16        18.4334   16.5066    2.2052 H         1 BEH         0.0537
     62 H17        19.4308   17.5083    4.6882 H         1 BEH         0.0439
     63 H18        18.0093   16.6959    5.4272 H         1 BEH         0.0439
     64 H19        18.1230   18.6370    6.8299 H         1 BEH         0.0659
     65 H20        19.8869   19.6012    5.6304 H         1 BEH         0.2103
     66 H21        13.1946   24.6960    6.0658 H         1 BEH         0.0674
     67 H22        14.5589   24.9427    3.5433 H         1 BEH         0.2102
     68 H23        12.0204   25.5536    3.7866 H         1 BEH         0.0870
     69 H24        11.4091   23.3964    1.2379 H         1 BEH         0.0726
     70 H25        11.5572   25.0667    1.8819 H         1 BEH         0.0726
     71 H26         9.5459   26.2109    1.3906 H         1 BEH         0.0557
     72 H27         7.0444   26.4228    1.6523 H         1 BEH         0.0599
     73 H28         5.7057   24.4959    2.5704 H         1 BEH         0.0559
     74 H29         6.8557   22.3502    3.2280 H         1 BEH         0.0599
     75 H30         9.3565   22.1242    2.9741 H         1 BEH         0.0557
     76 H31        10.1638   26.3620    4.7864 H         1 BEH         0.1878
     77 H32         8.9373   24.5715    6.8076 H         1 BEH         0.0683
     78 H33         8.0237   25.7165    5.7678 H         1 BEH         0.0683
     79 H34         6.8707   27.2082    7.0068 H         1 BEH         0.0557
     80 H35         6.8341   28.8800    8.9004 H         1 BEH         0.0599
     81 H36         8.8516   29.1519   10.3830 H         1 BEH         0.0559
     82 H37        10.9196   27.7633    9.9870 H         1 BEH         0.0599
     83 H38        10.9727   26.0902    8.0992 H         1 BEH         0.0557
@<TRIPOS>BOND
     1    1    2 1  
     2    1    3 1  
     3    1   25 1  
     4    3    4 1  
     5    3   12 1  
     6    4    5 1  
     7    5    6 1  
     8    6    7 ar 
     9    6   11 ar 
    10    7    8 ar 
    11    8    9 ar 
    12    9   10 ar 
    13   10   11 ar 
    14   12   13 2  
    15   12   14 am 
    16   14   15 1  
    17   15   16 1  
    18   15   23 1  
    19   16   17 ar 
    20   16   21 ar 
    21   17   18 ar 
    22   18   19 ar 
    23   19   20 ar 
    24   20   21 ar 
    25   21   22 1  
    26   22   23 1  
    27   23   24 1  
    28   25   26 1  
    29   25   27 1  
    30   27   28 1  
    31   27   36 1  
    32   28   29 1  
    33   29   30 1  
    34   30   31 ar 
    35   30   35 ar 
    36   31   32 ar 
    37   32   33 ar 
    38   33   34 ar 
    39   34   35 ar 
    40   36   37 2  
    41   36   38 am 
    42   38   39 1  
    43   39   40 1  
    44   40   41 ar 
    45   40   45 ar 
    46   41   42 ar 
    47   42   43 ar 
    48   43   44 ar 
    49   44   45 ar 
    50    1   46 1  
    51    2   47 1  
    52    3   48 1  
    53    5   49 1  
    54    5   50 1  
    55    7   51 1  
    56    8   52 1  
    57    9   53 1  
    58   10   54 1  
    59   11   55 1  
    60   14   56 1  
    61   15   57 1  
    62   17   58 1  
    63   18   59 1  
    64   19   60 1  
    65   20   61 1  
    66   22   62 1  
    67   22   63 1  
    68   23   64 1  
    69   24   65 1  
    70   25   66 1  
    71   26   67 1  
    72   27   68 1  
    73   29   69 1  
    74   29   70 1  
    75   31   71 1  
    76   32   72 1  
    77   33   73 1  
    78   34   74 1  
    79   35   75 1  
    80   38   76 1  
    81   39   77 1  
    82   39   78 1  
    83   41   79 1  
    84   42   80 1  
    85   43   81 1  
    86   44   82 1  
    87   45   83 1  
@<TRIPOS>SUBSTRUCTURE
     1 BEH         1

