### 
### Created by X-TOOL on Mon Sep 10 21:12:49 2018
### 

@<TRIPOS>MOLECULE
1d4i_ligand
   87    92     1     0     0
SMALL
GAST_HUCK


@<TRIPOS>ATOM
      1 C01         9.7640   24.0840    2.2340 C.ar      1 BEG        -0.0173
      2 C02         9.0440   25.2510    1.8670 C.ar      1 BEG        -0.0581
      3 C03         7.6410   25.3630    2.0030 C.ar      1 BEG        -0.0685
      4 C04         6.9040   24.2720    2.5230 C.ar      1 BEG        -0.0687
      5 C05         7.5850   23.0880    2.8930 C.ar      1 BEG        -0.0685
      6 C06         8.9940   22.9960    2.7470 C.ar      1 BEG        -0.0581
      7 C07        16.2980   22.1490    8.7730 C.ar      1 BEG        -0.0173
      8 C08        15.5700   21.1300    9.4590 C.ar      1 BEG        -0.0581
      9 C09        16.1750   19.9340    9.9220 C.ar      1 BEG        -0.0685
     10 C10        17.5610   19.7290    9.7110 C.ar      1 BEG        -0.0687
     11 C11        18.3150   20.7250    9.0450 C.ar      1 BEG        -0.0685
     12 C12        17.6900   21.9140    8.5860 C.ar      1 BEG        -0.0581
     13 C13        15.5600   23.3580    8.1950 C.3       1 BEG         0.0850
     14 O14        14.5260   23.0150    7.2720 O.3       1 BEG        -0.3437
     15 C23        11.2870   24.0770    2.1480 C.3       1 BEG         0.0851
     16 O22        11.9200   23.5540    3.3130 O.3       1 BEG        -0.3412
     17 C15        15.0310   22.6990    5.9680 C.3       1 BEG         0.1523
     18 C16        13.9910   23.0190    4.9240 C.3       1 BEG         0.0218
     19 C17        13.5020   24.4250    5.0060 C.3       1 BEG         0.1031
     20 O24        14.4830   25.1780    4.3050 O.3       1 BEG        -0.3866
     21 C18        12.1170   24.5380    4.3530 C.3       1 BEG         0.1755
     22 C19        10.9440   24.4850    5.3240 C.2       1 BEG         0.2100
     23 O20        10.6960   23.4920    6.0040 O.2       1 BEG        -0.3940
     24 N21        10.1400   25.6060    5.3730 N.am      1 BEG        -0.2688
     25 C25        15.1400   21.2020    5.8360 C.2       1 BEG         0.2075
     26 O26        14.1930   20.4640    6.0870 O.2       1 BEG        -0.3941
     27 N27        16.3580   20.6920    5.4360 N.am      1 BEG        -0.2689
     28 C28        16.6200   19.2770    5.2610 C.3       1 BEG         0.1007
     29 C29        16.5710   18.8470    3.8200 C.ar      1 BEG        -0.0133
     30 C30        17.5340   17.8490    3.5510 C.ar      1 BEG        -0.0361
     31 C31        15.7320   19.3140    2.7770 C.ar      1 BEG        -0.0646
     32 C32        15.8630   18.7640    1.4680 C.ar      1 BEG        -0.0754
     33 C33        16.8330   17.7550    1.2120 C.ar      1 BEG        -0.0755
     34 C34        18.0180   18.7810    5.6730 C.3       1 BEG         0.0951
     35 O35        18.9370   19.8230    5.3790 O.3       1 BEG        -0.3857
     36 C36        17.6790   17.2890    2.2560 C.ar      1 BEG        -0.0667
     37 C37        18.3090   17.5380    4.7940 C.3       1 BEG         0.0085
     38 C38         8.9680   25.7780    6.2160 C.3       1 BEG         0.1007
     39 C39         9.2560   26.5070    7.5030 C.ar      1 BEG        -0.0133
     40 C40         8.1810   27.3610    7.8600 C.ar      1 BEG        -0.0361
     41 C41        10.4080   26.4460    8.3320 C.ar      1 BEG        -0.0646
     42 C42        10.4670   27.2400    9.5180 C.ar      1 BEG        -0.0754
     43 C43         9.3770   28.0890    9.8630 C.ar      1 BEG        -0.0755
     44 C44         7.8490   26.6630    5.6250 C.3       1 BEG         0.0951
     45 O45         8.4820   27.6840    4.8680 O.3       1 BEG        -0.3857
     46 C46         8.2240   28.1560    9.0350 C.ar      1 BEG        -0.0667
     47 C47         7.0930   27.2730    6.8320 C.3       1 BEG         0.0085
     48 H1          9.5942   26.0938    1.4646 H         1 BEG         0.0557
     49 H2          7.1344   26.2760    1.7117 H         1 BEG         0.0599
     50 H3          5.8283   24.3428    2.6367 H         1 BEG         0.0559
     51 H4          7.0279   22.2471    3.2899 H         1 BEG         0.0599
     52 H5          9.4971   22.0789    3.0314 H         1 BEG         0.0557
     53 H6         14.5102   21.2769    9.6332 H         1 BEG         0.0557
     54 H7         15.5826   19.1835   10.4327 H         1 BEG         0.0599
     55 H8         18.0389   18.8192   10.0559 H         1 BEG         0.0559
     56 H9         19.3770   20.5787    8.8844 H         1 BEG         0.0599
     57 H10        18.2882   22.6629    8.0797 H         1 BEG         0.0557
     58 H11        16.2912   23.9948    7.6756 H         1 BEG         0.0726
     59 H12        15.1099   23.9198    9.0268 H         1 BEG         0.0726
     60 H13        11.6320   25.1108    1.9987 H         1 BEG         0.0726
     61 H14        11.5842   23.4630    1.2850 H         1 BEG         0.0726
     62 H15        15.9860   23.2116    5.7806 H         1 BEG         0.0843
     63 H16        13.1356   22.3411    5.0610 H         1 BEG         0.0343
     64 H17        14.4310   22.8577    3.9288 H         1 BEG         0.0343
     65 H18        13.4387   24.7570    6.0528 H         1 BEG         0.0647
     66 H19        14.5352   24.8704    3.4077 H         1 BEG         0.2101
     67 H20        12.0856   25.5278    3.8742 H         1 BEG         0.0869
     68 H21        10.3858   26.3686    4.7747 H         1 BEG         0.1881
     69 H22        17.1025   21.3351    5.2566 H         1 BEG         0.1881
     70 H23        15.8584   18.7351    5.8409 H         1 BEG         0.0732
     71 H24        14.9953   20.0846    2.9735 H         1 BEG         0.0538
     72 H25        15.2227   19.1150    0.6668 H         1 BEG         0.0541
     73 H26        16.9277   17.3390    0.2155 H         1 BEG         0.0541
     74 H27        18.0552   18.5219    6.7414 H         1 BEG         0.0659
     75 H28        19.8134   19.5487    5.6221 H         1 BEG         0.2103
     76 H29        18.4200   16.5210    2.0657 H         1 BEG         0.0537
     77 H30        19.3839   17.4414    4.5814 H         1 BEG         0.0439
     78 H31        17.9454   16.6164    5.2719 H         1 BEG         0.0439
     79 H32         8.5713   24.7748    6.4310 H         1 BEG         0.0732
     80 H33        11.2374   25.8007    8.0661 H         1 BEG         0.0538
     81 H34        11.3423   27.1962   10.1560 H         1 BEG         0.0541
     82 H35         9.4272   28.6890   10.7644 H         1 BEG         0.0541
     83 H36         7.1655   26.0784    4.9918 H         1 BEG         0.0659
     84 H37         7.8211   28.2505    4.4875 H         1 BEG         0.2103
     85 H38         7.3934   28.8018    9.2958 H         1 BEG         0.0537
     86 H39         6.6882   28.2669    6.5906 H         1 BEG         0.0439
     87 H40         6.2769   26.6161    7.1673 H         1 BEG         0.0439
@<TRIPOS>BOND
     1    1    2 ar 
     2    1    6 ar 
     3   15    1 1  
     4    2    3 ar 
     5    3    4 ar 
     6    5    4 ar 
     7    6    5 ar 
     8    7    8 ar 
     9    7   12 ar 
    10   13    7 1  
    11    8    9 ar 
    12    9   10 ar 
    13   11   10 ar 
    14   12   11 ar 
    15   14   13 1  
    16   16   15 1  
    17   21   16 1  
    18   17   18 1  
    19   18   19 1  
    20   19   20 1  
    21   19   21 1  
    22   21   22 1  
    23   22   23 2  
    24   22   24 am 
    25   24   38 1  
    26   17   25 1  
    27   25   26 2  
    28   25   27 am 
    29   27   28 1  
    30   28   29 1  
    31   28   34 1  
    32   29   30 ar 
    33   29   31 ar 
    34   30   36 ar 
    35   37   30 1  
    36   31   32 ar 
    37   32   33 ar 
    38   36   33 ar 
    39   34   35 1  
    40   34   37 1  
    41   38   39 1  
    42   38   44 1  
    43   39   40 ar 
    44   39   41 ar 
    45   40   46 ar 
    46   47   40 1  
    47   41   42 ar 
    48   42   43 ar 
    49   46   43 ar 
    50   44   45 1  
    51   44   47 1  
    52   17   14 1  
    53    2   48 1  
    54    3   49 1  
    55    4   50 1  
    56    5   51 1  
    57    6   52 1  
    58    8   53 1  
    59    9   54 1  
    60   10   55 1  
    61   11   56 1  
    62   12   57 1  
    63   13   58 1  
    64   13   59 1  
    65   15   60 1  
    66   15   61 1  
    67   17   62 1  
    68   18   63 1  
    69   18   64 1  
    70   19   65 1  
    71   20   66 1  
    72   21   67 1  
    73   24   68 1  
    74   27   69 1  
    75   28   70 1  
    76   31   71 1  
    77   32   72 1  
    78   33   73 1  
    79   34   74 1  
    80   35   75 1  
    81   36   76 1  
    82   37   77 1  
    83   37   78 1  
    84   38   79 1  
    85   41   80 1  
    86   42   81 1  
    87   43   82 1  
    88   44   83 1  
    89   45   84 1  
    90   46   85 1  
    91   47   86 1  
    92   47   87 1  
@<TRIPOS>SUBSTRUCTURE
     1 BEG         1

