### 
### Created by X-TOOL on Mon Sep 10 21:12:49 2018
### 

@<TRIPOS>MOLECULE
1d4j_ligand
   83    87     1     0     0
SMALL
GAST_HUCK


@<TRIPOS>ATOM
      1 C01        13.7860   23.1580    4.9980 C.3       1 MSC         0.1289
      2 O02        14.3350   22.9260    3.6740 O.3       1 MSC        -0.3840
      3 C03        14.7900   22.7960    6.0680 C.3       1 MSC         0.1779
      4 O04        14.2510   23.0570    7.3900 O.3       1 MSC        -0.3411
      5 C05        15.2630   23.5020    8.3230 C.3       1 MSC         0.0851
      6 C06        16.1900   22.3940    8.8110 C.ar      1 MSC        -0.0173
      7 C07        15.6450   21.2450    9.5150 C.ar      1 MSC        -0.0581
      8 C08        16.5100   20.1500    9.8810 C.ar      1 MSC        -0.0685
      9 C09        17.9120   20.2020    9.5550 C.ar      1 MSC        -0.0687
     10 C10        18.4580   21.3460    8.8680 C.ar      1 MSC        -0.0685
     11 C11        17.6020   22.4390    8.4980 C.ar      1 MSC        -0.0581
     12 C12        15.0120   21.3170    5.9040 C.2       1 MSC         0.2101
     13 O13        14.0880   20.5230    6.1020 O.2       1 MSC        -0.3940
     14 N14        16.2780   20.8780    5.5500 N.am      1 MSC        -0.2688
     15 C15        16.5960   19.4710    5.3810 C.3       1 MSC         0.1007
     16 C16        16.5490   19.0090    3.9430 C.ar      1 MSC        -0.0133
     17 C17        15.6850   19.4260    2.8670 C.ar      1 MSC        -0.0646
     18 C18        15.8420   18.8290    1.5600 C.ar      1 MSC        -0.0754
     19 C19        16.8610   17.8330    1.3390 C.ar      1 MSC        -0.0755
     20 C20        17.7340   17.4190    2.4050 C.ar      1 MSC        -0.0667
     21 C21        17.5660   18.0170    3.7000 C.ar      1 MSC        -0.0361
     22 C22        18.3520   17.7670    4.9470 C.3       1 MSC         0.0085
     23 C23        18.0250   19.0360    5.7700 C.3       1 MSC         0.0951
     24 O24        18.9240   20.0960    5.4380 O.3       1 MSC        -0.3857
     25 C31        13.3030   24.5970    5.0800 C.3       1 MSC         0.1289
     26 O32        14.3440   25.4340    4.5040 O.3       1 MSC        -0.3840
     27 C33        11.9720   24.8490    4.3690 C.3       1 MSC         0.1779
     28 O34        11.8030   23.9510    3.2470 O.3       1 MSC        -0.3411
     29 C35        11.0930   24.5490    2.1420 C.3       1 MSC         0.0851
     30 C36         9.5860   24.4550    2.2690 C.ar      1 MSC        -0.0173
     31 C37         8.7630   25.6170    2.0110 C.ar      1 MSC        -0.0581
     32 C38         7.3430   25.5500    2.2250 C.ar      1 MSC        -0.0685
     33 C39         6.7430   24.3280    2.6850 C.ar      1 MSC        -0.0687
     34 C40         7.5520   23.1650    2.9330 C.ar      1 MSC        -0.0685
     35 C41         8.9700   23.2200    2.7260 C.ar      1 MSC        -0.0581
     36 C42        10.8600   24.6210    5.3830 C.2       1 MSC         0.2099
     37 O43        10.7510   23.5470    5.9790 O.2       1 MSC        -0.3940
     38 N44         9.9250   25.6200    5.5690 N.am      1 MSC        -0.2739
     39 C45         8.8250   25.4870    6.5160 C.3       1 MSC         0.0660
     40 C46         8.4100   26.6510    7.2790 C.ar      1 MSC         0.0267
     41 C47         7.1440   27.2950    7.0090 C.ar      1 MSC         0.1356
     42 C48         6.7630   28.4770    7.7560 C.ar      1 MSC        -0.0346
     43 C49         7.6410   29.0110    8.7650 C.ar      1 MSC        -0.0700
     44 C50         8.8990   28.3760    9.0380 C.ar      1 MSC        -0.0585
     45 C51         9.2820   27.1930    8.2920 C.ar      1 MSC         0.0415
     46 CL         11.0590   26.2810    8.6730 Cl        1 MSC        -0.0783
     47 F           6.3390   26.8210    6.0630 F         1 MSC        -0.1890
     48 H1         12.9130   22.5020    5.1308 H         1 MSC         0.0674
     49 H2         13.6881   23.1599    3.0187 H         1 MSC         0.2102
     50 H3         15.7273   23.3547    5.9288 H         1 MSC         0.0870
     51 H4         14.7586   23.9402    9.1968 H         1 MSC         0.0726
     52 H5         15.8745   24.2712    7.8286 H         1 MSC         0.0726
     53 H6         14.5907   21.2110    9.7645 H         1 MSC         0.0557
     54 H7         16.1053   19.2891   10.4007 H         1 MSC         0.0599
     55 H8         18.5600   19.3768    9.8276 H         1 MSC         0.0559
     56 H9         19.5151   21.3815    8.6305 H         1 MSC         0.0599
     57 H10        18.0148   23.2991    7.9833 H         1 MSC         0.0557
     58 H11        16.9994   21.5553    5.4056 H         1 MSC         0.1881
     59 H12        15.8676   18.9055    5.9807 H         1 MSC         0.0732
     60 H13        14.9249   20.1800    3.0364 H         1 MSC         0.0538
     61 H14        15.1933   19.1302    0.7454 H         1 MSC         0.0541
     62 H15        16.9708   17.3899    0.3558 H         1 MSC         0.0541
     63 H16        18.5013   16.6725    2.2346 H         1 MSC         0.0537
     64 H17        19.4288   17.6902    4.7359 H         1 MSC         0.0439
     65 H18        18.0132   16.8553    5.4608 H         1 MSC         0.0439
     66 H19        18.0846   18.8167    6.8463 H         1 MSC         0.0659
     67 H20        18.7084   20.8652    5.9520 H         1 MSC         0.2103
     68 H21        13.1734   24.8596    6.1403 H         1 MSC         0.0674
     69 H22        14.4885   25.1806    3.5999 H         1 MSC         0.2102
     70 H23        11.9391   25.8872    4.0071 H         1 MSC         0.0870
     71 H24        11.3967   24.0386    1.2161 H         1 MSC         0.0726
     72 H25        11.3717   25.6115    2.0834 H         1 MSC         0.0726
     73 H26         9.2162   26.5359    1.6572 H         1 MSC         0.0557
     74 H27         6.7251   26.4211    2.0394 H         1 MSC         0.0599
     75 H28         5.6720   24.2823    2.8464 H         1 MSC         0.0559
     76 H29         7.0898   22.2466    3.2765 H         1 MSC         0.0599
     77 H30         9.5807   22.3434    2.9097 H         1 MSC         0.0557
     78 H31        10.0052   26.4625    5.0364 H         1 MSC         0.1878
     79 H32         9.1155   24.7127    7.2413 H         1 MSC         0.0677
     80 H33         7.9483   25.1454    5.9463 H         1 MSC         0.0677
     81 H34         5.8141   28.9608    7.5546 H         1 MSC         0.0587
     82 H35         7.3508   29.8956    9.3203 H         1 MSC         0.0549
     83 H36         9.5591   28.7786    9.7977 H         1 MSC         0.0571
@<TRIPOS>BOND
     1    1    2 1  
     2    1    3 1  
     3    1   25 1  
     4    3    4 1  
     5    3   12 1  
     6    4    5 1  
     7    5    6 1  
     8    6    7 ar 
     9    6   11 ar 
    10    7    8 ar 
    11    8    9 ar 
    12    9   10 ar 
    13   10   11 ar 
    14   12   13 2  
    15   12   14 am 
    16   14   15 1  
    17   15   16 1  
    18   15   23 1  
    19   16   17 ar 
    20   16   21 ar 
    21   17   18 ar 
    22   18   19 ar 
    23   19   20 ar 
    24   20   21 ar 
    25   21   22 1  
    26   22   23 1  
    27   23   24 1  
    28   25   26 1  
    29   25   27 1  
    30   27   28 1  
    31   27   36 1  
    32   28   29 1  
    33   29   30 1  
    34   30   31 ar 
    35   30   35 ar 
    36   31   32 ar 
    37   32   33 ar 
    38   33   34 ar 
    39   34   35 ar 
    40   36   37 2  
    41   36   38 am 
    42   38   39 1  
    43   39   40 1  
    44   40   41 ar 
    45   40   45 ar 
    46   41   42 ar 
    47   41   47 1  
    48   42   43 ar 
    49   43   44 ar 
    50   44   45 ar 
    51   45   46 1  
    52    1   48 1  
    53    2   49 1  
    54    3   50 1  
    55    5   51 1  
    56    5   52 1  
    57    7   53 1  
    58    8   54 1  
    59    9   55 1  
    60   10   56 1  
    61   11   57 1  
    62   14   58 1  
    63   15   59 1  
    64   17   60 1  
    65   18   61 1  
    66   19   62 1  
    67   20   63 1  
    68   22   64 1  
    69   22   65 1  
    70   23   66 1  
    71   24   67 1  
    72   25   68 1  
    73   26   69 1  
    74   27   70 1  
    75   29   71 1  
    76   29   72 1  
    77   31   73 1  
    78   32   74 1  
    79   33   75 1  
    80   34   76 1  
    81   35   77 1  
    82   38   78 1  
    83   39   79 1  
    84   39   80 1  
    85   42   81 1  
    86   43   82 1  
    87   44   83 1  
@<TRIPOS>SUBSTRUCTURE
     1 MSC         1

