### 
### Created by X-TOOL on Mon Sep 10 21:12:47 2018
### 

@<TRIPOS>MOLECULE
1d4k_ligand
  106   110     1     0     0
SMALL
GAST_HUCK


@<TRIPOS>ATOM
      1 N1          4.6010    2.0260   12.0620 N.am      1 PI8        -0.2707
      2 C2          3.5320    1.9460   11.0500 C.3       1 PI8         0.1006
      3 C1          3.4530    3.3260   10.4420 C.3       1 PI8         0.0951
      4 O1          3.7690    4.3110   11.4310 O.3       1 PI8        -0.3857
      5 C9          2.0440    3.4960   10.0130 C.3       1 PI8         0.0085
      6 C3          2.1400    1.6920   11.5350 C.ar      1 PI8        -0.0133
      7 C8          1.2750    2.5870   10.9310 C.ar      1 PI8        -0.0361
      8 C4          1.6650    0.7480   12.4320 C.ar      1 PI8        -0.0646
      9 C7         -0.0800    2.5520   11.2140 C.ar      1 PI8        -0.0667
     10 C5          0.3060    0.6990   12.7280 C.ar      1 PI8        -0.0754
     11 C6         -0.5720    1.6070   12.1160 C.ar      1 PI8        -0.0755
     12 C11         6.3910    1.1670   13.4710 C.3       1 PI8         0.0608
     13 C12         7.7430    1.2920   12.7740 C.3       1 PI8         0.0007
     14 C13         7.7380    2.2400   11.6180 C.ar      1 PI8        -0.0405
     15 C18         7.7230    1.7620   10.3130 C.ar      1 PI8        -0.0602
     16 C14         7.7280    3.6130   11.8330 C.ar      1 PI8        -0.0602
     17 C17         7.6960    2.6400    9.2390 C.ar      1 PI8        -0.0686
     18 C15         7.7010    4.4990   10.7670 C.ar      1 PI8        -0.0686
     19 C16         7.6840    4.0140    9.4670 C.ar      1 PI8        -0.0687
     20 C10         5.2850    0.9460   12.4290 C.2       1 PI8         0.1831
     21 O2          5.0570   -0.1810   11.9770 O.2       1 PI8        -0.3964
     22 C19         6.4450   -0.0180   14.4210 C.3       1 PI8        -0.0003
     23 O3          5.2810    0.3390   16.5060 O.3       1 PI8        -0.3864
     24 C20         5.1870   -0.2920   15.2230 C.3       1 PI8         0.0973
     25 C21         5.0960   -1.7900   15.3930 C.3       1 PI8        -0.0047
     26 N2          3.9150   -2.1480   16.1700 N.4       1 PI8         0.2492
     27 C22         4.0580   -3.4820   16.7620 C.3       1 PI8         0.0748
     28 C23         2.7160   -4.2190   16.7070 C.3       1 PI8         0.0366
     29 C24         2.8300   -5.6920   16.9950 C.ar      1 PI8        -0.0460
     30 C25         2.8980   -6.1600   18.3050 C.ar      1 PI8        -0.0684
     31 C26         3.0650   -7.5150   18.5750 C.ar      1 PI8        -0.0396
     32 C29         2.9240   -6.6160   15.9550 C.ar      1 PI8        -0.0684
     33 C28         3.0930   -7.9700   16.2120 C.ar      1 PI8        -0.0396
     34 C27         3.1640   -8.4180   17.5240 C.ar      1 PI8         0.0840
     35 O6          3.3520   -9.7700   17.7500 O.3       1 PI8        -0.3224
     36 C30         5.1730   -4.3830   16.2000 C.2       1 PI8         0.2286
     37 O4          5.2480   -4.6210   14.9940 O.2       1 PI8        -0.3905
     38 N3          6.0830   -4.8000   17.0790 N.am      1 PI8        -0.2606
     39 C31         7.1660   -5.7450   16.7330 C.3       1 PI8         0.1335
     40 C32         8.4860   -5.0290   16.3370 C.3       1 PI8        -0.0037
     41 C33         9.1810   -5.8100   15.2170 C.3       1 PI8        -0.0582
     42 C34         8.2170   -3.5990   15.8650 C.3       1 PI8        -0.0491
     43 C35         9.3940   -2.9390   15.2290 C.3       1 PI8        -0.0648
     44 C36         7.4300   -6.5950   17.9780 C.2       1 PI8         0.2019
     45 O5          7.4000   -6.0840   19.1040 O.2       1 PI8        -0.3945
     46 N4          7.6450   -7.8940   17.7790 N.am      1 PI8        -0.2850
     47 C37         7.9150   -8.8640   18.8560 C.3       1 PI8         0.0309
     48 C38         7.6090  -10.3010   18.4460 C.3       1 PI8        -0.0327
     49 C39         6.1340  -10.5030   18.1270 C.3       1 PI8        -0.0488
     50 C40         5.2480  -10.0060   19.2570 C.3       1 PI8        -0.0252
     51 C41         3.7780  -10.3070   18.9950 C.3       1 PI8         0.0689
     52 H1          4.8158    2.9086   12.4802 H         1 PI8         0.1880
     53 H2          3.8017    1.1846   10.3034 H         1 PI8         0.0732
     54 H3          4.1380    3.4162    9.5861 H         1 PI8         0.0659
     55 H4          3.6511    5.1783   11.0616 H         1 PI8         0.2103
     56 H5          1.9150    3.1927    8.9636 H         1 PI8         0.0439
     57 H6          1.7208    4.5403   10.1353 H         1 PI8         0.0439
     58 H7          2.3495    0.0505   12.9012 H         1 PI8         0.0538
     59 H8         -0.7547    3.2543   10.7379 H         1 PI8         0.0537
     60 H9         -0.0726   -0.0370   13.4280 H         1 PI8         0.0541
     61 H10        -1.6313    1.5745   12.3436 H         1 PI8         0.0541
     62 H11         6.1809    2.0862   14.0374 H         1 PI8         0.0561
     63 H12         8.0375    0.2979   12.4065 H         1 PI8         0.0453
     64 H13         8.4814    1.6447   13.5091 H         1 PI8         0.0453
     65 H14         7.7325    0.6932   10.1326 H         1 PI8         0.0557
     66 H15         7.7415    3.9960   12.8470 H         1 PI8         0.0557
     67 H16         7.6843    2.2575    8.2248 H         1 PI8         0.0599
     68 H17         7.6932    5.5677   10.9486 H         1 PI8         0.0599
     69 H18         7.6614    4.7031    8.6305 H         1 PI8         0.0559
     70 H19         7.2646    0.1597   15.1328 H         1 PI8         0.0321
     71 H20         6.6651   -0.9160   13.8251 H         1 PI8         0.0321
     72 H21         4.4904    0.1635   17.0027 H         1 PI8         0.2100
     73 H22         4.3032    0.0858   14.6880 H         1 PI8         0.0648
     74 H23         5.9948   -2.1498   15.9152 H         1 PI8         0.0840
     75 H24         5.0336   -2.2631   14.4019 H         1 PI8         0.0840
     76 H25         3.1084   -2.1407   15.5655 H         1 PI8         0.2038
     77 H26         3.7885   -1.4724   16.9073 H         1 PI8         0.2038
     78 H27         4.3034   -3.3200   17.8220 H         1 PI8         0.1121
     79 H28         2.2899   -4.0926   15.7008 H         1 PI8         0.0486
     80 H29         2.0409   -3.7698   17.4503 H         1 PI8         0.0486
     81 H30         2.8196   -5.4579   19.1271 H         1 PI8         0.0530
     82 H31         3.1175   -7.8639   19.6000 H         1 PI8         0.0525
     83 H32         2.8642   -6.2716   14.9289 H         1 PI8         0.0530
     84 H33         3.1692   -8.6743   15.3915 H         1 PI8         0.0525
     85 H34         6.0311   -4.4577   18.0171 H         1 PI8         0.1885
     86 H35         6.8398   -6.3834   15.8987 H         1 PI8         0.0803
     87 H36         9.1469   -4.9944   17.2156 H         1 PI8         0.0345
     88 H37        10.1152   -5.2999   14.9394 H         1 PI8         0.0235
     89 H38         8.5180   -5.8630   14.3409 H         1 PI8         0.0235
     90 H39         9.4089   -6.8278   15.5665 H         1 PI8         0.0235
     91 H40         7.9122   -2.9990   16.7351 H         1 PI8         0.0267
     92 H41         7.3971   -3.6250   15.1322 H         1 PI8         0.0267
     93 H42         9.1197   -1.9198   14.9191 H         1 PI8         0.0230
     94 H43         9.7075   -3.5182   14.3480 H         1 PI8         0.0230
     95 H44        10.2226   -2.8922   15.9509 H         1 PI8         0.0230
     96 H45         7.6218   -8.2334   16.8386 H         1 PI8         0.1851
     97 H46         8.9775   -8.7958   19.1324 H         1 PI8         0.0520
     98 H47         7.2926   -8.6062   19.7256 H         1 PI8         0.0520
     99 H48         8.2023  -10.5493   17.5536 H         1 PI8         0.0285
    100 H49         7.8889  -10.9726   19.2710 H         1 PI8         0.0285
    101 H50         5.8875   -9.9491   17.2091 H         1 PI8         0.0267
    102 H51         5.9457  -11.5753   17.9700 H         1 PI8         0.0267
    103 H52         5.5519  -10.5000   20.1917 H         1 PI8         0.0291
    104 H53         5.3765   -8.9183   19.3585 H         1 PI8         0.0291
    105 H54         3.6327  -11.3973   18.9829 H         1 PI8         0.0611
    106 H55         3.1733   -9.8654   19.8008 H         1 PI8         0.0611
@<TRIPOS>BOND
     1   20    1 am 
     2    1    2 1  
     3    2    6 1  
     4    2    3 1  
     5    3    5 1  
     6    3    4 1  
     7    5    7 1  
     8    7    9 ar 
     9    6    7 ar 
    10    6    8 ar 
    11    8   10 ar 
    12   10   11 ar 
    13    9   11 ar 
    14   20   21 2  
    15   20   12 1  
    16   12   22 1  
    17   12   13 1  
    18   13   14 1  
    19   14   16 ar 
    20   14   15 ar 
    21   15   17 ar 
    22   17   19 ar 
    23   19   18 ar 
    24   16   18 ar 
    25   22   24 1  
    26   24   23 1  
    27   24   25 1  
    28   25   26 1  
    29   26   27 1  
    30   27   36 1  
    31   27   28 1  
    32   28   29 1  
    33   29   32 ar 
    34   29   30 ar 
    35   30   31 ar 
    36   31   34 ar 
    37   34   35 1  
    38   34   33 ar 
    39   33   32 ar 
    40   35   51 1  
    41   51   50 1  
    42   50   49 1  
    43   49   48 1  
    44   48   47 1  
    45   47   46 1  
    46   46   44 am 
    47   44   45 2  
    48   44   39 1  
    49   39   40 1  
    50   39   38 1  
    51   38   36 am 
    52   36   37 2  
    53   40   42 1  
    54   40   41 1  
    55   42   43 1  
    56    1   52 1  
    57    2   53 1  
    58    3   54 1  
    59    4   55 1  
    60    5   56 1  
    61    5   57 1  
    62    8   58 1  
    63    9   59 1  
    64   10   60 1  
    65   11   61 1  
    66   12   62 1  
    67   13   63 1  
    68   13   64 1  
    69   15   65 1  
    70   16   66 1  
    71   17   67 1  
    72   18   68 1  
    73   19   69 1  
    74   22   70 1  
    75   22   71 1  
    76   23   72 1  
    77   24   73 1  
    78   25   74 1  
    79   25   75 1  
    80   26   76 1  
    81   26   77 1  
    82   27   78 1  
    83   28   79 1  
    84   28   80 1  
    85   30   81 1  
    86   31   82 1  
    87   32   83 1  
    88   33   84 1  
    89   38   85 1  
    90   39   86 1  
    91   40   87 1  
    92   41   88 1  
    93   41   89 1  
    94   41   90 1  
    95   42   91 1  
    96   42   92 1  
    97   43   93 1  
    98   43   94 1  
    99   43   95 1  
   100   46   96 1  
   101   47   97 1  
   102   47   98 1  
   103   48   99 1  
   104   48  100 1  
   105   49  101 1  
   106   49  102 1  
   107   50  103 1  
   108   50  104 1  
   109   51  105 1  
   110   51  106 1  
@<TRIPOS>SUBSTRUCTURE
     1 PI8         1

