### 
### Created by X-TOOL on Mon Sep 10 21:12:47 2018
### 

@<TRIPOS>MOLECULE
1d4p_ligand
   52    55     1     0     0
SMALL
GAST_HUCK


@<TRIPOS>ATOM
      1 C1        -23.9770  -31.8420   23.1850 C.ar      1 BPP         0.0112
      2 C2        -23.2620  -33.0490   22.8460 C.ar      1 BPP        -0.0659
      3 C3        -22.2410  -32.9690   21.8570 C.ar      1 BPP        -0.0176
      4 C4        -21.9390  -31.7360   21.2190 C.ar      1 BPP         0.0676
      5 C5        -22.6540  -30.5500   21.5620 C.ar      1 BPP        -0.0404
      6 C6        -23.6720  -30.6180   22.5390 C.ar      1 BPP        -0.0687
      7 C10       -21.3610  -33.8910   21.3030 C.2       1 BPP        -0.0392
      8 C11       -20.5500  -33.2420   20.3660 C.2       1 BPP         0.1323
      9 N12       -20.9500  -31.9310   20.3630 N.pl3     1 BPP        -0.2671
     10 C13       -24.9870  -31.8380   24.1860 C.cat     1 BPP         0.2291
     11 N14       -25.1220  -30.7030   24.8440 N.pl3     1 BPP        -0.2733
     12 N15       -25.7300  -32.8840   24.4660 N.pl3     1 BPP        -0.2733
     13 C17       -19.4790  -33.7530   19.5580 C.2       1 BPP         0.2293
     14 O18       -19.6650  -34.3370   18.4800 O.2       1 BPP        -0.3839
     15 N19       -18.0940  -33.5610   20.0610 N.am      1 BPP        -0.2712
     16 C20       -16.8530  -34.0600   19.3190 C.3       1 BPP         0.0336
     17 C21       -16.3920  -35.2560   20.2020 C.3       1 BPP        -0.0279
     18 C22       -16.1290  -34.7710   21.6280 C.3       1 BPP        -0.0277
     19 C23       -17.3950  -34.0160   22.2270 C.3       1 BPP        -0.0279
     20 C24       -17.7910  -32.8960   21.3250 C.3       1 BPP         0.0336
     21 C33       -15.7200  -35.9250   22.6000 C.3       1 BPP        -0.0162
     22 C35       -15.2460  -35.3600   23.9730 C.ar      1 BPP        -0.0428
     23 C38       -16.1300  -35.3170   25.1240 C.ar      1 BPP        -0.0603
     24 C39       -15.6990  -34.8010   26.3600 C.ar      1 BPP        -0.0686
     25 C40       -14.3740  -34.3200   26.4640 C.ar      1 BPP        -0.0687
     26 C41       -13.4870  -34.3510   25.3550 C.ar      1 BPP        -0.0686
     27 C42       -13.9140  -34.8640   24.1260 C.ar      1 BPP        -0.0603
     28 H1        -23.4958  -33.9900   23.3308 H         1 BPP         0.0556
     29 H2        -22.4190  -29.6085   21.0789 H         1 BPP         0.0550
     30 H3        -24.2266  -29.7232   22.7977 H         1 BPP         0.0549
     31 H4        -21.3108  -34.9487   21.5574 H         1 BPP         0.0399
     32 H5        -20.5355  -31.1957   19.7727 H         1 BPP         0.2261
     33 H6        -25.8321  -30.6188   25.5854 H         1 BPP         0.3180
     34 H7        -24.5174  -29.9008   24.6165 H         1 BPP         0.3180
     35 H8        -25.6062  -33.7598   23.9382 H         1 BPP         0.3180
     36 H9        -26.4366  -32.8286   25.2134 H         1 BPP         0.3180
     37 H10       -16.0786  -33.2803   19.2699 H         1 BPP         0.0521
     38 H11       -17.1048  -34.3913   18.3008 H         1 BPP         0.0521
     39 H12       -15.4685  -35.6840   19.7850 H         1 BPP         0.0289
     40 H13       -17.1786  -36.0248   20.2163 H         1 BPP         0.0289
     41 H14       -15.2937  -34.0567   21.5828 H         1 BPP         0.0324
     42 H15       -17.1441  -33.6137   23.2196 H         1 BPP         0.0289
     43 H16       -18.2321  -34.7237   22.3190 H         1 BPP         0.0289
     44 H17       -18.6763  -32.3724   21.7150 H         1 BPP         0.0521
     45 H18       -16.9653  -32.1795   21.2034 H         1 BPP         0.0521
     46 H19       -14.9009  -36.5029   22.1472 H         1 BPP         0.0429
     47 H20       -16.5868  -36.5826   22.7620 H         1 BPP         0.0429
     48 H21       -17.1433  -35.6903   25.0291 H         1 BPP         0.0557
     49 H22       -16.3677  -34.7730   27.2128 H         1 BPP         0.0599
     50 H23       -14.0276  -33.9191   27.4097 H         1 BPP         0.0559
     51 H24       -12.4756  -33.9757   25.4616 H         1 BPP         0.0599
     52 H25       -13.2310  -34.8856   23.2845 H         1 BPP         0.0557
@<TRIPOS>BOND
     1   10    1 1  
     2    1    6 ar 
     3    1    2 ar 
     4    2    3 ar 
     5    3    7 1  
     6    3    4 ar 
     7    4    9 1  
     8    4    5 ar 
     9    6    5 ar 
    10    9    8 1  
    11    8   13 1  
    12    7    8 2  
    13   13   15 am 
    14   13   14 2  
    15   15   20 1  
    16   15   16 1  
    17   16   17 1  
    18   17   18 1  
    19   18   21 1  
    20   18   19 1  
    21   20   19 1  
    22   21   22 1  
    23   22   27 ar 
    24   22   23 ar 
    25   23   24 ar 
    26   24   25 ar 
    27   25   26 ar 
    28   27   26 ar 
    29   10   12 ar 
    30   10   11 ar 
    31    2   28 1  
    32    5   29 1  
    33    6   30 1  
    34    7   31 1  
    35    9   32 1  
    36   11   33 1  
    37   11   34 1  
    38   12   35 1  
    39   12   36 1  
    40   16   37 1  
    41   16   38 1  
    42   17   39 1  
    43   17   40 1  
    44   18   41 1  
    45   19   42 1  
    46   19   43 1  
    47   20   44 1  
    48   20   45 1  
    49   21   46 1  
    50   21   47 1  
    51   23   48 1  
    52   24   49 1  
    53   25   50 1  
    54   26   51 1  
    55   27   52 1  
@<TRIPOS>SUBSTRUCTURE
     1 BPP         1

