### 
### Created by X-TOOL on Mon Sep 10 21:12:46 2018
### 

@<TRIPOS>MOLECULE
1d4y_ligand
   75    78     1     0     0
SMALL
GAST_HUCK


@<TRIPOS>ATOM
      1 O1         13.5490   21.4220    6.0780 O.3       1 TPV        -0.2775
      2 C2         12.4870   22.2020    6.1190 C.2       1 TPV         0.2212
      3 C3         12.5470   23.5480    5.4880 C.2       1 TPV         0.0518
      4 C4         13.8030   23.9390    4.9840 C.2       1 TPV         0.0930
      5 C5         15.0300   23.2520    5.6000 C.3       1 TPV         0.0484
      6 C6         14.8980   22.0240    5.8860 C.3       1 TPV         0.1121
      7 O7         11.4380   21.7180    6.4840 O.2       1 TPV        -0.3901
      8 O8         13.9930   25.1280    4.4030 O.3       1 TPV        -0.3232
      9 C9         15.6730   21.2240    4.7930 C.3       1 TPV        -0.0172
     10 C10        14.9300   20.7870    3.8080 C.3       1 TPV        -0.0528
     11 C11        15.3040   19.6110    2.9400 C.3       1 TPV        -0.0652
     12 C12        15.0230   21.5580    7.3030 C.3       1 TPV        -0.0074
     13 C13        16.3690   21.8390    7.8000 C.3       1 TPV        -0.0160
     14 C14        17.1530   21.0430    8.7130 C.ar      1 TPV        -0.0429
     15 C15        16.6590   20.0120    9.5070 C.ar      1 TPV        -0.0603
     16 C16        17.5300   19.2810   10.3400 C.ar      1 TPV        -0.0686
     17 C17        18.9090   19.5970   10.3740 C.ar      1 TPV        -0.0687
     18 C18        19.4220   20.6060    9.5180 C.ar      1 TPV        -0.0686
     19 C19        18.5020   21.4760    8.9050 C.ar      1 TPV        -0.0603
     20 C20        11.2280   24.2070    5.1080 C.3       1 TPV         0.0078
     21 C21        10.5910   24.7000    3.7600 C.3       1 TPV        -0.0416
     22 C22        10.5880   23.7940    2.5510 C.3       1 TPV        -0.0625
     23 C23        10.8290   25.1040    6.3000 C.ar      1 TPV        -0.0540
     24 C24        11.7510   25.5550    7.2160 C.ar      1 TPV        -0.0769
     25 C25        11.3690   26.4890    8.2190 C.ar      1 TPV        -0.0844
     26 C26         9.9960   26.7460    8.4140 C.ar      1 TPV        -0.0526
     27 C27         9.0780   26.3430    7.4490 C.ar      1 TPV         0.0558
     28 N28         7.3690   26.7380    7.8330 N.am      1 TPV        -0.1846
     29 C29         9.5070   25.5850    6.3530 C.ar      1 TPV        -0.0443
     30 S30         6.9640   28.0460    6.9890 S.o2      1 TPV         0.1159
     31 O31         8.0020   29.0910    7.3030 O.2       1 TPV        -0.1395
     32 O32         5.6120   28.3680    7.3120 O.2       1 TPV        -0.1395
     33 C33         7.1250   27.6670    5.2960 C.ar      1 TPV         0.2140
     34 N34         8.2710   28.0670    4.6760 N.ar      1 TPV        -0.2350
     35 C35         8.3810   27.8220    3.3630 C.ar      1 TPV         0.0449
     36 C36         7.4360   27.0880    2.6350 C.ar      1 TPV         0.0774
     37 C37         6.2390   26.7490    3.2440 C.ar      1 TPV        -0.0118
     38 C38         6.0790   27.0450    4.6200 C.ar      1 TPV         0.0213
     39 C39         7.7270   26.7580    1.1740 C.3       1 TPV         0.3861
     40 F40         8.3860   27.9150    0.6730 F         1 TPV        -0.2154
     41 F41         6.5010   26.5110    0.5690 F         1 TPV        -0.2154
     42 F42         8.5950   25.6360    1.2270 F         1 TPV        -0.2154
     43 H1         15.2846   23.7871    6.5267 H         1 TPV         0.0532
     44 H2         15.8603   23.3427    4.8843 H         1 TPV         0.0532
     45 H3         14.8999   25.2049    4.1309 H         1 TPV         0.2572
     46 H4         16.1485   20.3570    5.2749 H         1 TPV         0.0298
     47 H5         16.4486   21.8808    4.3724 H         1 TPV         0.0298
     48 H6         14.8076   21.6390    3.1231 H         1 TPV         0.0264
     49 H7         13.9575   20.5332    4.2549 H         1 TPV         0.0264
     50 H8         14.5182   19.4456    2.1882 H         1 TPV         0.0230
     51 H9         15.4081   18.7121    3.5654 H         1 TPV         0.0230
     52 H10        16.2583   19.8179    2.4335 H         1 TPV         0.0230
     53 H11        14.8354   20.4751    7.3492 H         1 TPV         0.0320
     54 H12        14.2860   22.0848    7.9270 H         1 TPV         0.0320
     55 H13        16.2899   22.8240    8.2832 H         1 TPV         0.0427
     56 H14        16.9902   21.9228    6.8961 H         1 TPV         0.0427
     57 H15        15.6024   19.7708    9.4847 H         1 TPV         0.0557
     58 H16        17.1433   18.4764   10.9549 H         1 TPV         0.0599
     59 H17        19.5712   19.0702   11.0515 H         1 TPV         0.0559
     60 H18        20.4873   20.7031    9.3424 H         1 TPV         0.0599
     61 H19        18.8123   22.4632    8.5820 H         1 TPV         0.0557
     62 H20        10.5784   23.3301    5.2457 H         1 TPV         0.0507
     63 H21        11.1289   25.6147    3.4702 H         1 TPV         0.0297
     64 H22         9.5406   24.9451    3.9759 H         1 TPV         0.0297
     65 H23        10.1028   24.3085    1.7085 H         1 TPV         0.0232
     66 H24        10.0353   22.8722    2.7849 H         1 TPV         0.0232
     67 H25        11.6236   23.5417    2.2793 H         1 TPV         0.0232
     68 H26        12.7733   25.1971    7.1734 H         1 TPV         0.0414
     69 H27        12.1173   26.9924    8.8205 H         1 TPV         0.0555
     70 H28         9.6580   27.2542    9.3099 H         1 TPV         0.0425
     71 H29         6.7747   26.2344    8.4600 H         1 TPV         0.2164
     72 H30         8.8197   25.3679    5.5433 H         1 TPV         0.0414
     73 H31         9.2454   28.2118    2.8376 H         1 TPV         0.1070
     74 H32         5.4454   26.2697    2.6823 H         1 TPV         0.0964
     75 H33         5.1601   26.7921    5.1365 H         1 TPV         0.0802
@<TRIPOS>BOND
     1    1    6 1  
     2    1    2 1  
     3    2    7 2  
     4    2    3 1  
     5    3   20 1  
     6    3    4 2  
     7    4    8 1  
     8    4    5 1  
     9    5    6 1  
    10    6   12 1  
    11    6    9 1  
    12    9   10 1  
    13   10   11 1  
    14   12   13 1  
    15   13   14 1  
    16   14   19 ar 
    17   14   15 ar 
    18   15   16 ar 
    19   16   17 ar 
    20   17   18 ar 
    21   18   19 ar 
    22   20   23 1  
    23   20   21 1  
    24   21   22 1  
    25   23   29 ar 
    26   23   24 ar 
    27   24   25 ar 
    28   25   26 ar 
    29   26   27 ar 
    30   27   29 ar 
    31   27   28 1  
    32   28   30 am 
    33   30   33 1  
    34   30   32 2  
    35   30   31 2  
    36   33   38 ar 
    37   33   34 ar 
    38   34   35 ar 
    39   35   36 ar 
    40   36   39 1  
    41   36   37 ar 
    42   37   38 ar 
    43   39   42 1  
    44   39   40 1  
    45   39   41 1  
    46    5   43 1  
    47    5   44 1  
    48    8   45 1  
    49    9   46 1  
    50    9   47 1  
    51   10   48 1  
    52   10   49 1  
    53   11   50 1  
    54   11   51 1  
    55   11   52 1  
    56   12   53 1  
    57   12   54 1  
    58   13   55 1  
    59   13   56 1  
    60   15   57 1  
    61   16   58 1  
    62   17   59 1  
    63   18   60 1  
    64   19   61 1  
    65   20   62 1  
    66   21   63 1  
    67   21   64 1  
    68   22   65 1  
    69   22   66 1  
    70   22   67 1  
    71   24   68 1  
    72   25   69 1  
    73   26   70 1  
    74   28   71 1  
    75   29   72 1  
    76   35   73 1  
    77   37   74 1  
    78   38   75 1  
@<TRIPOS>SUBSTRUCTURE
     1 TPV         1

