### 
### Created by X-TOOL on Mon Sep 10 21:12:48 2018
### 

@<TRIPOS>MOLECULE
1d5j_ligand
   46    47     1     0     0
SMALL
GAST_HUCK


@<TRIPOS>ATOM
      1 C1         -7.1220   20.1440   30.1970 C.ar      1 MM3         0.0973
      2 C2         -7.6020   18.7890   29.9880 C.ar      1 MM3        -0.0440
      3 C3         -6.6840   17.6950   30.2860 C.ar      1 MM3        -0.0313
      4 C4         -5.3460   18.0760   30.7490 C.ar      1 MM3         0.0908
      5 C5         -4.9230   19.4570   30.9610 C.ar      1 MM3        -0.0313
      6 C6         -5.8240   20.5500   30.6810 C.ar      1 MM3        -0.0440
      7 O7         -4.3900   17.1480   30.8890 O.3       1 MM3        -0.3212
      8 C8         -4.6050   15.8300   30.8560 C.3       1 MM3         0.0594
      9 S9         -8.3160   21.4080   29.7660 S.o2      1 MM3         0.0679
     10 O10        -9.9100   20.7480   30.1940 O.2       1 MM3        -0.1514
     11 O11        -8.0540   22.8590   30.5810 O.2       1 MM3        -0.1514
     12 N12        -8.2880   22.0020   28.1290 N.am      1 MM3        -0.2121
     13 C13        -7.2700   22.7380   27.3640 C.3       1 MM3         0.1448
     14 C14        -7.6030   24.2400   27.2370 C.3       1 MM3         0.0478
     15 S15        -9.4280   24.2800   27.2770 S.3       1 MM3        -0.1502
     16 C16       -10.4670   23.0110   26.4660 C.3       1 MM3        -0.0041
     17 C17       -10.4560   21.6300   27.1300 C.3       1 MM3        -0.0266
     18 C18        -9.0470   21.1090   27.2530 C.3       1 MM3         0.0332
     19 C19        -7.2900   24.6330   25.8090 C.3       1 MM3        -0.0468
     20 C20        -7.0590   25.5030   27.8950 C.3       1 MM3        -0.0468
     21 C          -5.8110   22.4030   27.6920 C.2       1 MM3         0.2222
     22 NA         -5.0430   23.3000   28.3020 N.am      1 MM3        -0.1626
     23 OA         -3.6240   23.0260   27.8490 O.3       1 MM3        -0.2717
     24 OB         -5.3140   21.3390   27.3190 O.2       1 MM3        -0.3948
     25 H1         -8.6051   18.5978   29.6241 H         1 MM3         0.0608
     26 H2         -6.9752   16.6572   30.1714 H         1 MM3         0.0542
     27 H3         -3.9253   19.6634   31.3313 H         1 MM3         0.0542
     28 H4         -5.5487   21.5889   30.8224 H         1 MM3         0.0608
     29 H5         -3.6517   15.2994   30.9960 H         1 MM3         0.0577
     30 H6         -5.0392   15.5535   29.8839 H         1 MM3         0.0577
     31 H7         -5.3011   15.5517   31.6610 H         1 MM3         0.0577
     32 H8         -7.3878   22.3566   26.3390 H         1 MM3         0.0769
     33 H9        -10.1127   22.8929   25.4313 H         1 MM3         0.0377
     34 H10       -11.5047   23.3758   26.4589 H         1 MM3         0.0377
     35 H11       -11.0473   20.9313   26.5199 H         1 MM3         0.0289
     36 H12       -10.9009   21.7080   28.1330 H         1 MM3         0.0289
     37 H13        -9.0636   20.0964   27.6824 H         1 MM3         0.0480
     38 H14        -8.5764   21.0783   26.2593 H         1 MM3         0.0480
     39 H15        -7.5115   25.7009   25.6657 H         1 MM3         0.0245
     40 H16        -7.9057   24.0353   25.1208 H         1 MM3         0.0245
     41 H17        -6.2254   24.4485   25.6029 H         1 MM3         0.0245
     42 H18        -7.5951   26.3803   27.5038 H         1 MM3         0.0245
     43 H19        -5.9861   25.5996   27.6723 H         1 MM3         0.0245
     44 H20        -7.2033   25.4406   28.9837 H         1 MM3         0.0245
     45 H21        -5.3427   24.0142   28.9346 H         1 MM3         0.2217
     46 H22        -3.3787   22.1424   28.0969 H         1 MM3         0.2490
@<TRIPOS>BOND
     1    1    2 ar 
     2    1    6 ar 
     3    1    9 1  
     4    2    3 ar 
     5    3    4 ar 
     6    4    5 ar 
     7    4    7 1  
     8    5    6 ar 
     9    7    8 1  
    10    9   10 2  
    11    9   11 2  
    12    9   12 am 
    13   12   13 1  
    14   12   18 1  
    15   13   14 1  
    16   13   21 1  
    17   14   15 1  
    18   14   19 1  
    19   14   20 1  
    20   15   16 1  
    21   16   17 1  
    22   17   18 1  
    23   21   22 am 
    24   21   24 2  
    25   22   23 1  
    26    2   25 1  
    27    3   26 1  
    28    5   27 1  
    29    6   28 1  
    30    8   29 1  
    31    8   30 1  
    32    8   31 1  
    33   13   32 1  
    34   16   33 1  
    35   16   34 1  
    36   17   35 1  
    37   17   36 1  
    38   18   37 1  
    39   18   38 1  
    40   19   39 1  
    41   19   40 1  
    42   19   41 1  
    43   20   42 1  
    44   20   43 1  
    45   20   44 1  
    46   22   45 1  
    47   23   46 1  
@<TRIPOS>SUBSTRUCTURE
     1 MM3         1

