### 
### Created by X-TOOL on Mon Sep 10 21:12:46 2018
### 

@<TRIPOS>MOLECULE
1d6n_ligand
   14    15     1     0     0
SMALL
GAST_HUCK


@<TRIPOS>ATOM
      1 O6         45.7210   51.0030    3.6400 O.2       1 PPO        -0.4031
      2 C6         44.9190   50.0450    3.6210 C.2       1 PPO         0.2408
      3 C5         43.8470   49.7780    4.5360 C.2       1 PPO         0.1603
      4 N7         43.4150   50.4750    5.6470 N.2       1 PPO        -0.1948
      5 N8         42.4140   49.7890    6.1030 N.2       1 PPO        -0.2287
      6 C9         42.1480   48.6640    5.3580 C.3       1 PPO         0.0898
      7 C4         43.0690   48.6440    4.3400 C.2       1 PPO         0.0701
      8 N3         43.1770   47.6920    3.3460 N.2       1 PPO        -0.2593
      9 C2         44.1880   47.9370    2.4740 C.2       1 PPO         0.1471
     10 N1         45.0210   49.0570    2.6010 N.am      1 PPO        -0.1916
     11 H1         41.1287   48.7124    4.9473 H         1 PPO         0.0705
     12 H2         42.2502   47.7629    5.9806 H         1 PPO         0.0705
     13 H3         44.3568   47.2431    1.6518 H         1 PPO         0.1637
     14 H4         45.7450   49.1713    1.9207 H         1 PPO         0.2649
@<TRIPOS>BOND
     1    1    2 2  
     2    2    3 1  
     3    2   10 am 
     4    3    4 1  
     5    3    7 2  
     6    4    5 2  
     7    5    6 1  
     8    6    7 1  
     9    7    8 1  
    10    8    9 2  
    11    9   10 am 
    12    6   11 1  
    13    6   12 1  
    14    9   13 1  
    15   10   14 1  
@<TRIPOS>SUBSTRUCTURE
     1 PPO         1

