### 
### Created by X-TOOL on Mon Sep 10 21:12:47 2018
### 

@<TRIPOS>MOLECULE
1d6v_ligand
   54    56     1     0     0
SMALL
GAST_HUCK


@<TRIPOS>ATOM
      1 C1         11.2940    8.1470    0.6440 C.ar      1 HOP        -0.0687
      2 C2         10.2580    7.5140   -0.1120 C.ar      1 HOP        -0.0686
      3 C6         11.8120    9.4030    0.2350 C.ar      1 HOP        -0.0686
      4 C5         11.3050   10.0420   -0.9300 C.ar      1 HOP        -0.0601
      5 C4         10.2600    9.4190   -1.7040 C.ar      1 HOP        -0.0399
      6 C3          9.7490    8.1450   -1.2790 C.ar      1 HOP        -0.0601
      7 C7          9.7100   10.0840   -2.9860 C.3       1 HOP        -0.0047
      8 C12        10.7980   10.8910   -3.7860 C.3       1 HOP        -0.0121
      9 C11        10.2490   11.5620   -5.0690 C.3       1 HOP         0.0702
     10 C10         9.0570   12.5180   -4.7100 C.3       1 HOP         0.0211
     11 C9          7.9250   11.6920   -3.9550 C.3       1 HOP        -0.0353
     12 C8          8.4760   11.0080   -2.6630 C.3       1 HOP        -0.0381
     13 C13         8.4910   13.2160   -6.0100 C.ar      1 HOP        -0.0328
     14 C14         9.1060   14.4380   -6.4700 C.ar      1 HOP        -0.0541
     15 C15         8.6300   15.0920   -7.6120 C.ar      1 HOP        -0.0485
     16 C16         7.5150   14.5600   -8.3470 C.ar      1 HOP         0.0427
     17 C17         6.9200   13.3420   -7.8940 C.ar      1 HOP        -0.0485
     18 C18         7.3900   12.6670   -6.7420 C.ar      1 HOP        -0.0541
     19 O19        11.3230   12.2680   -5.7340 O.3       1 HOP        -0.3892
     20 C20         7.0300   15.2630   -9.5770 C.2       1 HOP         0.1999
     21 O21         5.9330   14.9560  -10.0620 O.2       1 HOP        -0.3878
     22 N22         7.8270   16.2400  -10.1200 N.am      1 HOP        -0.2870
     23 C23         7.5630   17.1070  -11.3090 C.3       1 HOP         0.0318
     24 C24         8.6300   18.2450  -11.3710 C.3       1 HOP        -0.0212
     25 C25         9.4940   18.3250  -10.0860 C.3       1 HOP         0.0020
     26 C26        10.4590   19.4890  -10.0280 C.2       1 HOP         0.0349
     27 O27        11.4120   19.6240  -10.8120 O.co2     1 HOP        -0.5690
     28 O28        10.1590   20.3660   -8.9880 O.co2     1 HOP        -0.5690
     29 H1         11.6850    7.6653    1.5329 H         1 HOP         0.0559
     30 H2          9.8622    6.5557    0.2043 H         1 HOP         0.0599
     31 H3         12.5971    9.8773    0.8127 H         1 HOP         0.0599
     32 H4         11.7057   11.0012   -1.2373 H         1 HOP         0.0557
     33 H5          8.9680    7.6608   -1.8540 H         1 HOP         0.0557
     34 H6          9.3575    9.2747   -3.6424 H         1 HOP         0.0462
     35 H7         11.6041   10.1995   -4.0723 H         1 HOP         0.0317
     36 H8         11.2033   11.6748   -3.1292 H         1 HOP         0.0317
     37 H9          9.8735   10.7804   -5.7458 H         1 HOP         0.0622
     38 H10         9.4271   13.3014   -4.0324 H         1 HOP         0.0497
     39 H11         7.5378   10.9163   -4.6319 H         1 HOP         0.0293
     40 H12         7.1098   12.3760   -3.6766 H         1 HOP         0.0293
     41 H13         8.7878   11.7862   -1.9508 H         1 HOP         0.0292
     42 H14         7.6792   10.3974   -2.2133 H         1 HOP         0.0292
     43 H15         9.9457   14.8537   -5.9250 H         1 HOP         0.0570
     44 H16         9.1060   16.0072   -7.9451 H         1 HOP         0.0652
     45 H17         6.0868   12.9241   -8.4473 H         1 HOP         0.0652
     46 H18         6.9215   11.7448   -6.4177 H         1 HOP         0.0570
     47 H19        10.9891   12.6808   -6.5217 H         1 HOP         0.2100
     48 H20         8.7010   16.3921   -9.6585 H         1 HOP         0.1843
     49 H21         6.5595   17.5496  -11.2244 H         1 HOP         0.0520
     50 H22         7.6203   16.5005  -12.2249 H         1 HOP         0.0520
     51 H23         8.1123   19.2059  -11.5074 H         1 HOP         0.0302
     52 H24         9.2924   18.0602  -12.2295 H         1 HOP         0.0302
     53 H25        10.0775   17.3956  -10.0102 H         1 HOP         0.0431
     54 H26         8.8150   18.4031   -9.2241 H         1 HOP         0.0431
@<TRIPOS>BOND
     1    1    3 ar 
     2    1    2 ar 
     3    2    6 ar 
     4    6    5 ar 
     5    5    7 1  
     6    5    4 ar 
     7    4    3 ar 
     8    7   12 1  
     9    7    8 1  
    10    8    9 1  
    11    9   19 1  
    12    9   10 1  
    13   10   13 1  
    14   10   11 1  
    15   11   12 1  
    16   13   18 ar 
    17   13   14 ar 
    18   14   15 ar 
    19   15   16 ar 
    20   16   20 1  
    21   16   17 ar 
    22   17   18 ar 
    23   20   22 am 
    24   20   21 2  
    25   22   23 1  
    26   23   24 1  
    27   24   25 1  
    28   25   26 1  
    29   26   28 ar 
    30   26   27 ar 
    31    1   29 1  
    32    2   30 1  
    33    3   31 1  
    34    4   32 1  
    35    6   33 1  
    36    7   34 1  
    37    8   35 1  
    38    8   36 1  
    39    9   37 1  
    40   10   38 1  
    41   11   39 1  
    42   11   40 1  
    43   12   41 1  
    44   12   42 1  
    45   14   43 1  
    46   15   44 1  
    47   17   45 1  
    48   18   46 1  
    49   19   47 1  
    50   22   48 1  
    51   23   49 1  
    52   23   50 1  
    53   24   51 1  
    54   24   52 1  
    55   25   53 1  
    56   25   54 1  
@<TRIPOS>SUBSTRUCTURE
     1 HOP         1

