### 
### Created by X-TOOL on Mon Sep 10 21:12:47 2018
### 

@<TRIPOS>MOLECULE
1d6w_ligand
   66    70     1     0     0
SMALL
GAST_HUCK


@<TRIPOS>ATOM
      1 C01        13.5570  -11.0860   19.9620 C.3       1 00R        -0.0280
      2 C02        14.4460  -12.4670   20.0420 C.3       1 00R         0.0425
      3 C03        13.4950  -13.6750   20.3320 C.3       1 00R        -0.0280
      4 C04        12.3520  -13.3920   21.4960 C.3       1 00R        -0.0383
      5 C05        12.8360  -12.0680   22.3430 C.3       1 00R         0.0075
      6 C06        12.9450  -10.7710   21.4690 C.3       1 00R        -0.0383
      7 N20        15.5870  -12.3820   20.9900 N.am      1 00R        -0.2806
      8 C22        12.0340  -11.9000   23.2690 C.2       1 00R         0.0409
      9 N23        11.6470  -12.8270   24.2480 N.pl3     1 00R        -0.2449
     10 C24        10.7930  -12.2360   25.1330 C.2       1 00R         0.1942
     11 N25        10.6170  -10.9750   24.7980 N.2       1 00R        -0.3473
     12 C26        11.4440  -10.7640   23.5830 C.2       1 00R        -0.0513
     13 N27        10.2640  -12.9570   26.1260 N.pl3     1 00R        -0.3004
     14 C31        17.3700  -17.1500   23.9450 C.3       1 00R         0.0796
     15 N07        18.0250  -16.1340   23.1370 N.am      1 00R        -0.1517
     16 C08        19.1440  -16.3230   22.3250 C.2       1 00R         0.3166
     17 O09        19.8090  -17.3580   22.1880 O.2       1 00R        -0.3903
     18 N10        19.3820  -15.1200   21.6610 N.am      1 00R        -0.1349
     19 N11        18.3990  -14.2200   22.0660 N.am      1 00R        -0.1153
     20 C12        17.5690  -14.8270   22.9990 C.2       1 00R         0.3189
     21 O13        16.5890  -14.3440   23.5610 O.2       1 00R        -0.3902
     22 C14        20.6360  -14.6960   21.0740 C.3       1 00R         0.0780
     23 C15        20.5340  -13.3510   20.3930 C.2       1 00R        -0.0694
     24 C16        19.4230  -12.5950   20.5510 C.2       1 00R        -0.0506
     25 C17        18.2030  -12.9610   21.3610 C.3       1 00R         0.1760
     26 C18        16.9240  -13.1160   20.5000 C.2       1 00R         0.2123
     27 O19        16.9030  -13.8470   19.2370 O.2       1 00R        -0.3920
     28 C32        18.3370  -17.9690   24.7590 C.3       1 00R         0.0952
     29 S33        18.8410  -17.1800   26.2810 S.o2      1 00R        -0.0009
     30 O34        17.6720  -16.3950   26.7250 O.2       1 00R        -0.1693
     31 O35        19.2610  -18.2340   27.1910 O.2       1 00R        -0.1693
     32 C36        20.1650  -16.0750   25.8620 C.ar      1 00R         0.0883
     33 C37        20.1810  -14.7560   26.3300 C.ar      1 00R        -0.0369
     34 C38        21.2000  -13.8930   25.9430 C.ar      1 00R        -0.0600
     35 C39        22.2100  -14.3250   25.1010 C.ar      1 00R        -0.0616
     36 C40        22.2260  -15.6300   24.6340 C.ar      1 00R        -0.0600
     37 C41        21.2070  -16.4980   25.0150 C.ar      1 00R        -0.0369
     38 H1         14.1958  -10.2511   19.6383 H         1 00R         0.0289
     39 H2         12.7324  -11.2159   19.2457 H         1 00R         0.0289
     40 H3         14.8827  -12.6291   19.0455 H         1 00R         0.0556
     41 H4         14.1115  -14.5261   20.6570 H         1 00R         0.0289
     42 H5         12.9755  -13.9341   19.3977 H         1 00R         0.0289
     43 H6         12.2743  -14.2604   22.1667 H         1 00R         0.0289
     44 H7         11.3753  -13.2026   21.0267 H         1 00R         0.0289
     45 H8         13.8308  -12.2726   22.7654 H         1 00R         0.0456
     46 H9         11.9427  -10.3312   21.3602 H         1 00R         0.0289
     47 H10        13.6065  -10.0546   21.9781 H         1 00R         0.0289
     48 H11        15.5251  -11.9037   21.8660 H         1 00R         0.1856
     49 H12        11.9605  -13.8071   24.2922 H         1 00R         0.2341
     50 H13        11.5462   -9.8252   23.0406 H         1 00R         0.0251
     51 H14         9.6189  -12.5150   26.7963 H         1 00R         0.1788
     52 H15        10.5014  -13.9548   26.2211 H         1 00R         0.1788
     53 H16        16.8149  -17.8250   23.2770 H         1 00R         0.0588
     54 H17        16.6677  -16.6535   24.6307 H         1 00R         0.0588
     55 H18        20.9478  -15.4444   20.3306 H         1 00R         0.0671
     56 H19        21.3932  -14.6315   21.8693 H         1 00R         0.0671
     57 H20        21.3548  -12.9901   19.7750 H         1 00R         0.0483
     58 H21        19.4075  -11.6305   20.0456 H         1 00R         0.0494
     59 H22        18.0355  -12.1607   22.0969 H         1 00R         0.0944
     60 H23        17.8577  -18.9276   25.0067 H         1 00R         0.0528
     61 H24        19.2341  -18.1541   24.1499 H         1 00R         0.0528
     62 H25        19.3987  -14.4072   26.9944 H         1 00R         0.0636
     63 H26        21.2035  -12.8711   26.3045 H         1 00R         0.0618
     64 H27        22.9942  -13.6378   24.8046 H         1 00R         0.0618
     65 H28        23.0215  -15.9699   23.9808 H         1 00R         0.0618
     66 H29        21.2158  -17.5196   24.6526 H         1 00R         0.0636
@<TRIPOS>BOND
     1    1    6 1  
     2    2    1 1  
     3    7    2 1  
     4    2    3 1  
     5    3    4 1  
     6    4    5 1  
     7    5    8 1  
     8    6    5 1  
     9    8   12 2  
    10    8    9 1  
    11    9   10 1  
    12   10   13 1  
    13   10   11 2  
    14   12   11 1  
    15   15   14 1  
    16   20   15 am 
    17   15   16 am 
    18   18   16 am 
    19   16   17 2  
    20   18   22 1  
    21   19   18 1  
    22   25   19 1  
    23   19   20 am 
    24   20   21 2  
    25   26   25 1  
    26   25   24 1  
    27   24   23 2  
    28   23   22 1  
    29   26   27 2  
    30   28   29 1  
    31   29   32 1  
    32   29   31 2  
    33   29   30 2  
    34   32   37 ar 
    35   32   33 ar 
    36   33   34 ar 
    37   34   35 ar 
    38   36   35 ar 
    39   37   36 ar 
    40   14   28 1  
    41   26    7 am 
    42    1   38 1  
    43    1   39 1  
    44    2   40 1  
    45    3   41 1  
    46    3   42 1  
    47    4   43 1  
    48    4   44 1  
    49    5   45 1  
    50    6   46 1  
    51    6   47 1  
    52    7   48 1  
    53    9   49 1  
    54   12   50 1  
    55   13   51 1  
    56   13   52 1  
    57   14   53 1  
    58   14   54 1  
    59   22   55 1  
    60   22   56 1  
    61   23   57 1  
    62   24   58 1  
    63   25   59 1  
    64   28   60 1  
    65   28   61 1  
    66   33   62 1  
    67   34   63 1  
    68   35   64 1  
    69   36   65 1  
    70   37   66 1  
@<TRIPOS>SUBSTRUCTURE
     1 00R         1

