### 
### Created by X-TOOL on Mon Sep 10 21:12:47 2018
### 

@<TRIPOS>MOLECULE
1d7i_ligand
   14    13     1     0     0
SMALL
GAST_HUCK


@<TRIPOS>ATOM
      1 S          60.6710   -5.4620   -0.2410 S.o       1 DSS         0.0290
      2 O          60.1490   -6.4880    0.7290 O.2       1 DSS        -0.2567
      3 C1         59.8370   -5.6920   -1.8050 C.3       1 DSS         0.0125
      4 C2         59.9600   -3.9490    0.1630 C.3       1 DSS         0.0688
      5 S3         60.5040   -2.6040   -0.8980 S.3       1 DSS        -0.1509
      6 C4         60.0500   -1.1960    0.2120 C.3       1 DSS        -0.0172
      7 H1         60.1595   -6.6419   -2.2563 H         1 DSS         0.0365
      8 H2         60.0887   -4.8611   -2.4805 H         1 DSS         0.0365
      9 H3         58.7496   -5.7146   -1.6409 H         1 DSS         0.0365
     10 H4         60.2261   -3.7041    1.2018 H         1 DSS         0.0514
     11 H5         58.8674   -4.0421    0.0766 H         1 DSS         0.0514
     12 H6         60.3133   -0.2455   -0.2751 H         1 DSS         0.0341
     13 H7         60.5985   -1.2858    1.1613 H         1 DSS         0.0341
     14 H8         58.9682   -1.2192    0.4099 H         1 DSS         0.0341
@<TRIPOS>BOND
     1    4    1 1  
     2    1    3 1  
     3    1    2 2  
     4    4    5 1  
     5    5    6 1  
     6    3    7 1  
     7    3    8 1  
     8    3    9 1  
     9    4   10 1  
    10    4   11 1  
    11    6   12 1  
    12    6   13 1  
    13    6   14 1  
@<TRIPOS>SUBSTRUCTURE
     1 DSS         1

