### 
### Created by X-TOOL on Mon Sep 10 21:12:47 2018
### 

@<TRIPOS>MOLECULE
1d7j_ligand
   14    13     1     0     0
SMALL
GAST_HUCK


@<TRIPOS>ATOM
      1 C1         60.8010   -6.0610   -1.8860 C.3       1 BUQ         0.0095
      2 C2         60.6140   -5.5790   -0.4640 C.2       1 BUQ         0.1041
      3 O2         60.4980   -6.4210    0.4290 O.2       1 BUQ        -0.3918
      4 C3         60.5610   -4.0930   -0.1430 C.3       1 BUQ         0.0440
      5 C4         60.2240   -3.2290   -1.3580 C.3       1 BUQ         0.0598
      6 O5         59.0760   -3.5710   -2.1240 O.3       1 BUQ        -0.3926
      7 H1         60.8117   -7.1608   -1.9019 H         1 BUQ         0.0458
      8 H2         61.7544   -5.6794   -2.2802 H         1 BUQ         0.0458
      9 H3         59.9729   -5.6933   -2.5097 H         1 BUQ         0.0458
     10 H4         61.5425   -3.7834    0.2453 H         1 BUQ         0.0516
     11 H5         59.7933   -3.9284    0.6274 H         1 BUQ         0.0516
     12 H6         61.0906   -3.2641   -2.0345 H         1 BUQ         0.0583
     13 H7         60.0816   -2.1995   -0.9976 H         1 BUQ         0.0583
     14 H8         58.3045   -3.5314   -1.5711 H         1 BUQ         0.2096
@<TRIPOS>BOND
     1    2    1 1  
     2    2    4 1  
     3    2    3 2  
     4    4    5 1  
     5    5    6 1  
     6    1    7 1  
     7    1    8 1  
     8    1    9 1  
     9    4   10 1  
    10    4   11 1  
    11    5   12 1  
    12    5   13 1  
    13    6   14 1  
@<TRIPOS>SUBSTRUCTURE
     1 BUQ         1

