### 
### Created by X-TOOL on Mon Sep 10 21:12:48 2018
### 

@<TRIPOS>MOLECULE
1d7x_ligand
   40    41     1     0     0
SMALL
GAST_HUCK


@<TRIPOS>ATOM
      1 C1         -7.3820   19.8220   29.5990 C.ar      1 SPC         0.0975
      2 C2         -7.6680   18.5440   29.1250 C.ar      1 SPC        -0.0440
      3 C3         -6.7950   17.4910   29.3700 C.ar      1 SPC        -0.0313
      4 C4         -5.6190   17.7980   30.0800 C.ar      1 SPC         0.0908
      5 C5         -5.3240   19.0830   30.4720 C.ar      1 SPC        -0.0313
      6 C6         -6.1880   20.1220   30.2240 C.ar      1 SPC        -0.0440
      7 S11        -8.5320   21.1450   29.4850 S.o2      1 SPC         0.0700
      8 O12        -8.0990   22.1470   30.4020 O.2       1 SPC        -0.1512
      9 O13        -9.8640   20.6850   29.5540 O.2       1 SPC        -0.1512
     10 O35        -4.6360   16.9020   30.4630 O.3       1 SPC        -0.3212
     11 C8         -4.8960   15.5630   30.1320 C.3       1 SPC         0.0594
     12 N14        -8.4230   21.9630   27.9720 N.am      1 SPC        -0.1974
     13 C15        -7.4260   22.9860   27.6760 C.3       1 SPC         0.1451
     14 C16        -7.8810   23.5690   26.3330 C.3       1 SPC         0.0340
     15 C17        -8.4580   22.3190   25.6960 C.2       1 SPC         0.0471
     16 C29        -5.9900   22.3400   27.4770 C.2       1 SPC         0.2234
     17 O31        -5.6970   21.3920   26.7350 O.2       1 SPC        -0.3946
     18 N32        -5.0010   22.9310   28.1830 N.am      1 SPC        -0.1625
     19 O33        -3.7020   22.3360   28.0490 O.3       1 SPC        -0.2717
     20 C18        -8.6680   21.2070   26.7480 C.3       1 SPC         0.0803
     21 N23        -8.8900   22.1590   24.4180 N.2       1 SPC        -0.2023
     22 O24        -8.7660   22.9420   23.2870 O.3       1 SPC        -0.2778
     23 C25        -8.8020   22.1760   22.1250 C.3       1 SPC         0.0693
     24 H1         -8.5774   18.3696   28.5614 H         1 SPC         0.0608
     25 H2         -7.0089   16.4837   29.0313 H         1 SPC         0.0542
     26 H3         -4.3908   19.2799   30.9871 H         1 SPC         0.0542
     27 H4         -5.9416   21.1387   30.5082 H         1 SPC         0.0608
     28 H5         -4.0629   14.9320   30.4753 H         1 SPC         0.0577
     29 H6         -5.0019   15.4688   29.0412 H         1 SPC         0.0577
     30 H7         -5.8269   15.2387   30.6202 H         1 SPC         0.0577
     31 H8         -7.3954   23.7523   28.4645 H         1 SPC         0.0784
     32 H9         -7.0368   23.9716   25.7540 H         1 SPC         0.0503
     33 H10        -8.6429   24.3516   26.4631 H         1 SPC         0.0503
     34 H11        -5.1636   23.7307   28.7610 H         1 SPC         0.2217
     35 H12        -3.0780   22.8180   28.5789 H         1 SPC         0.2490
     36 H13        -9.6907   20.8032   26.7159 H         1 SPC         0.0676
     37 H14        -7.9458   20.3867   26.6239 H         1 SPC         0.0676
     38 H15        -8.7006   22.8336   21.2491 H         1 SPC         0.0585
     39 H16        -9.7596   21.6375   22.0703 H         1 SPC         0.0585
     40 H17        -7.9742   21.4517   22.1374 H         1 SPC         0.0585
@<TRIPOS>BOND
     1    1    7 1  
     2    1    6 ar 
     3    1    2 ar 
     4    2    3 ar 
     5    3    4 ar 
     6    4   10 1  
     7    4    5 ar 
     8    5    6 ar 
     9   10   11 1  
    10    7   12 am 
    11    7    9 2  
    12    7    8 2  
    13   12   20 1  
    14   12   13 1  
    15   13   16 1  
    16   13   14 1  
    17   14   15 1  
    18   15   21 2  
    19   15   20 1  
    20   21   22 1  
    21   22   23 1  
    22   16   18 am 
    23   16   17 2  
    24   18   19 1  
    25    2   24 1  
    26    3   25 1  
    27    5   26 1  
    28    6   27 1  
    29   11   28 1  
    30   11   29 1  
    31   11   30 1  
    32   13   31 1  
    33   14   32 1  
    34   14   33 1  
    35   18   34 1  
    36   19   35 1  
    37   20   36 1  
    38   20   37 1  
    39   23   38 1  
    40   23   39 1  
    41   23   40 1  
@<TRIPOS>SUBSTRUCTURE
     1 SPC         1

