### 
### Created by X-TOOL on Mon Sep 10 21:12:48 2018
### 

@<TRIPOS>MOLECULE
1d8f_ligand
   54    56     1     0     0
SMALL
GAST_HUCK


@<TRIPOS>ATOM
      1 S1          3.9180   48.6810   53.5750 S.o2      1 SPI         0.0680
      2 O1          3.3760   47.7850   52.5980 O.2       1 SPI        -0.1514
      3 O2          5.3480   48.7510   53.5270 O.2       1 SPI        -0.1514
      4 C1          3.2840   48.4860   55.2440 C.ar      1 SPI         0.0973
      5 C2          3.9490   49.1640   56.3430 C.ar      1 SPI        -0.0440
      6 C3          3.5790   48.8280   57.7130 C.ar      1 SPI        -0.0313
      7 C4          2.5560   47.8260   57.9670 C.ar      1 SPI         0.0908
      8 C5          1.8940   47.1680   56.8530 C.ar      1 SPI        -0.0313
      9 C6          2.2480   47.4860   55.4650 C.ar      1 SPI        -0.0440
     10 O3          2.1330   47.4780   59.1900 O.3       1 SPI        -0.3212
     11 C7          2.8350   47.5240   60.3240 C.3       1 SPI         0.0594
     12 N1          3.6410   50.2240   52.9200 N.am      1 SPI        -0.2096
     13 C8          2.3150   50.3110   52.2910 C.3       1 SPI         0.1510
     14 C9          2.2980   51.5650   51.4090 C.3       1 SPI         0.0728
     15 N2          2.8490   52.7490   52.0950 N.am      1 SPI        -0.2431
     16 C10         4.2130   52.6080   52.6330 C.3       1 SPI         0.0532
     17 C11         4.3220   51.3870   53.5200 C.3       1 SPI         0.0528
     18 C12         2.2590   53.9330   51.9750 C.2       1 SPI         0.3244
     19 O4          2.6990   54.9230   52.6190 O.2       1 SPI        -0.3773
     20 O5          1.2710   54.0340   51.2070 O.3       1 SPI        -0.2505
     21 C13         0.8050   55.2320   50.6470 C.3       1 SPI         0.1113
     22 C14        -0.3870   55.0030   49.7710 C.ar      1 SPI        -0.0130
     23 C15        -0.9910   53.6900   49.8390 C.ar      1 SPI        -0.0578
     24 C16        -2.1350   53.4050   48.9910 C.ar      1 SPI        -0.0685
     25 C17        -2.5980   54.4800   48.1150 C.ar      1 SPI        -0.0687
     26 C18        -1.9540   55.7950   48.0810 C.ar      1 SPI        -0.0685
     27 C19        -0.8020   56.0960   48.9230 C.ar      1 SPI        -0.0578
     28 C20         1.1400   50.3020   53.2820 C.2       1 SPI         0.2228
     29 NA          0.2800   49.2890   53.2140 N.am      1 SPI        -0.1626
     30 OA         -0.8590   49.4820   54.0310 O.3       1 SPI        -0.2717
     31 OB          0.9540   51.1930   54.1290 O.2       1 SPI        -0.3948
     32 H1          4.7106   49.9102   56.1474 H         1 SPI         0.0608
     33 H2          4.0671   49.3257   58.5431 H         1 SPI         0.0542
     34 H3          1.1255   46.4296   57.0509 H         1 SPI         0.0542
     35 H4          1.7561   46.9943   54.6336 H         1 SPI         0.0608
     36 H5          2.2087   47.1730   61.1574 H         1 SPI         0.0577
     37 H6          3.1542   48.5590   60.5159 H         1 SPI         0.0577
     38 H7          3.7206   46.8779   60.2335 H         1 SPI         0.0577
     39 H8          2.1943   49.4311   51.6420 H         1 SPI         0.0776
     40 H9          1.2584   51.7779   51.1193 H         1 SPI         0.0566
     41 H10         2.8972   51.3697   50.5075 H         1 SPI         0.0566
     42 H11         4.4621   53.5034   53.2213 H         1 SPI         0.0538
     43 H12         4.9212   52.5098   51.7970 H         1 SPI         0.0538
     44 H13         5.3849   51.1438   53.6653 H         1 SPI         0.0500
     45 H14         3.8603   51.6093   54.4934 H         1 SPI         0.0500
     46 H15         1.6089   55.6816   50.0457 H         1 SPI         0.0776
     47 H16         0.5251   55.9202   51.4581 H         1 SPI         0.0776
     48 H17        -0.5976   52.9344   50.5093 H         1 SPI         0.0557
     49 H18        -2.6241   52.4377   49.0069 H         1 SPI         0.0599
     50 H19        -3.4481   54.2973   47.4677 H         1 SPI         0.0559
     51 H20        -2.3412   56.5594   47.4170 H         1 SPI         0.0599
     52 H21        -0.3005   57.0570   48.9133 H         1 SPI         0.0557
     53 H22         0.4233   48.4783   52.6464 H         1 SPI         0.2217
     54 H23        -1.4384   48.7339   53.9464 H         1 SPI         0.2490
@<TRIPOS>BOND
     1    1   12 am 
     2    1    4 1  
     3    1    3 2  
     4    1    2 2  
     5    4    9 ar 
     6    4    5 ar 
     7    5    6 ar 
     8    6    7 ar 
     9    7   10 1  
    10    7    8 ar 
    11    8    9 ar 
    12   10   11 1  
    13   12   17 1  
    14   12   13 1  
    15   13   28 1  
    16   13   14 1  
    17   14   15 1  
    18   15   18 am 
    19   15   16 1  
    20   16   17 1  
    21   18   20 1  
    22   18   19 2  
    23   20   21 1  
    24   21   22 1  
    25   22   27 ar 
    26   22   23 ar 
    27   23   24 ar 
    28   24   25 ar 
    29   25   26 ar 
    30   26   27 ar 
    31   28   31 2  
    32   28   29 am 
    33   29   30 1  
    34    5   32 1  
    35    6   33 1  
    36    8   34 1  
    37    9   35 1  
    38   11   36 1  
    39   11   37 1  
    40   11   38 1  
    41   13   39 1  
    42   14   40 1  
    43   14   41 1  
    44   16   42 1  
    45   16   43 1  
    46   17   44 1  
    47   17   45 1  
    48   21   46 1  
    49   21   47 1  
    50   23   48 1  
    51   24   49 1  
    52   25   50 1  
    53   26   51 1  
    54   27   52 1  
    55   29   53 1  
    56   30   54 1  
@<TRIPOS>SUBSTRUCTURE
     1 SPI         1

