### 
### Created by X-TOOL on Mon Sep 10 21:12:48 2018
### 

@<TRIPOS>MOLECULE
1d8m_ligand
   50    52     1     0     0
SMALL
GAST_HUCK


@<TRIPOS>ATOM
      1 C1          3.2160   48.2730   54.6770 C.ar      1 BBH         0.0974
      2 C2          3.8020   48.9350   55.8260 C.ar      1 BBH        -0.0440
      3 C3          3.2410   48.5530   57.1030 C.ar      1 BBH        -0.0313
      4 C4          2.1790   47.5530   57.1260 C.ar      1 BBH         0.0908
      5 C5          1.6140   46.9100   55.9430 C.ar      1 BBH        -0.0313
      6 C6          2.1520   47.2870   54.6540 C.ar      1 BBH        -0.0440
      7 O7          1.7030   47.1160   58.2940 O.3       1 BBH        -0.3212
      8 C8          2.2230   47.2360   59.5190 C.3       1 BBH         0.0594
      9 S9          3.8440   48.7300   53.0640 S.o2      1 BBH         0.0697
     10 O10         3.2570   47.5680   51.9330 O.2       1 BBH        -0.1513
     11 O11         5.5730   48.7610   53.0480 O.2       1 BBH        -0.1513
     12 N12         3.1650   50.3130   52.7230 N.am      1 BBH        -0.1890
     13 C13         1.9910   50.3550   51.8270 C.3       1 BBH         0.1496
     14 C14         1.9270   51.7440   51.1950 C.3       1 BBH         0.0747
     15 C15         3.2540   52.1600   50.6080 C.2       1 BBH         0.1857
     16 N16         4.3370   51.9690   51.3490 N.am      1 BBH        -0.2437
     17 C17         4.1730   51.3860   52.6990 C.3       1 BBH         0.1205
     18 O18         3.3470   52.6750   49.4940 O.2       1 BBH        -0.3964
     19 C           0.7200   50.0800   52.6110 C.2       1 BBH         0.2232
     20 NA          0.1090   48.9130   52.4380 N.am      1 BBH        -0.1625
     21 OA         -1.1370   48.6980   53.1590 O.3       1 BBH        -0.2717
     22 OB          0.2600   50.8890   53.4320 O.2       1 BBH        -0.3947
     23 C7          5.6340   52.3860   50.7750 C.3       1 BBH         0.0691
     24 C9          8.0180   53.9100   53.4110 C.ar      1 BBH        -0.0685
     25 C10         6.9070   53.7550   52.4850 C.ar      1 BBH        -0.0584
     26 C11         6.7400   52.4860   51.7880 C.ar      1 BBH        -0.0207
     27 C12         7.6300   51.3500   51.9710 C.ar      1 BBH        -0.0584
     28 C16         8.7400   51.5070   52.9010 C.ar      1 BBH        -0.0685
     29 C18         8.9140   52.7740   53.5970 C.ar      1 BBH        -0.0687
     30 H1          4.6009   49.6620   55.7347 H         1 BBH         0.0608
     31 H2          3.6015   48.9997   58.0225 H         1 BBH         0.0542
     32 H3          0.8202   46.1767   56.0275 H         1 BBH         0.0542
     33 H4          1.7831   46.8594   53.7287 H         1 BBH         0.0608
     34 H5          1.5565   46.7535   60.2491 H         1 BBH         0.0577
     35 H6          2.3304   48.3018   59.7690 H         1 BBH         0.0577
     36 H7          3.2101   46.7514   59.5474 H         1 BBH         0.0577
     37 H8          2.1012   49.5954   51.0391 H         1 BBH         0.0782
     38 H9          1.6361   52.4721   51.9665 H         1 BBH         0.0547
     39 H10         1.1719   51.7358   50.3952 H         1 BBH         0.0547
     40 H11         5.1385   50.9724   53.0258 H         1 BBH         0.0748
     41 H12         3.8609   52.1808   53.3925 H         1 BBH         0.0748
     42 H13         0.4898   48.2106   51.8366 H         1 BBH         0.2217
     43 H14        -1.4747   47.8339   52.9547 H         1 BBH         0.2490
     44 H15         5.5044   53.3717   50.3042 H         1 BBH         0.0686
     45 H16         5.9281   51.6508   50.0115 H         1 BBH         0.0686
     46 H17         8.1751   54.8398   53.9457 H         1 BBH         0.0599
     47 H18         6.2137   54.5710   52.3159 H         1 BBH         0.0557
     48 H19         7.4729   50.4209   51.4350 H         1 BBH         0.0557
     49 H20         9.4297   50.6886   53.0732 H         1 BBH         0.0599
     50 H21         9.7462   52.8777   54.2838 H         1 BBH         0.0559
@<TRIPOS>BOND
     1    1    9 1  
     2    1    6 ar 
     3    1    2 ar 
     4    2    3 ar 
     5    3    4 ar 
     6    4    7 1  
     7    4    5 ar 
     8    5    6 ar 
     9    7    8 1  
    10    9   12 am 
    11    9   11 2  
    12    9   10 2  
    13   12   17 1  
    14   12   13 1  
    15   13   19 1  
    16   13   14 1  
    17   14   15 1  
    18   15   18 2  
    19   15   16 am 
    20   16   23 1  
    21   16   17 1  
    22   23   26 1  
    23   26   27 ar 
    24   26   25 ar 
    25   25   24 ar 
    26   24   29 ar 
    27   29   28 ar 
    28   28   27 ar 
    29   19   22 2  
    30   19   20 am 
    31   20   21 1  
    32    2   30 1  
    33    3   31 1  
    34    5   32 1  
    35    6   33 1  
    36    8   34 1  
    37    8   35 1  
    38    8   36 1  
    39   13   37 1  
    40   14   38 1  
    41   14   39 1  
    42   17   40 1  
    43   17   41 1  
    44   20   42 1  
    45   21   43 1  
    46   23   44 1  
    47   23   45 1  
    48   24   46 1  
    49   25   47 1  
    50   27   48 1  
    51   28   49 1  
    52   29   50 1  
@<TRIPOS>SUBSTRUCTURE
     1 BBH         1

