### 
### Created by X-TOOL on Mon Sep 10 21:12:47 2018
### 

@<TRIPOS>MOLECULE
1d9i_ligand
   63    66     1     0     0
SMALL
GAST_HUCK


@<TRIPOS>ATOM
      1 N1         15.5640  -12.1770   21.3760 N.am      1 00P        -0.2834
      2 C1         14.6340  -11.3620   20.5950 C.3       1 00P         0.0339
      3 C2         13.1470  -11.2940   21.1010 C.3       1 00P        -0.0204
      4 C7         12.4150  -12.6670   20.9440 C.3       1 00P        -0.0433
      5 C6         11.1010  -12.8180   21.7700 C.3       1 00P        -0.0095
      6 C5         11.3930  -12.4610   23.2340 C.3       1 00P        -0.0244
      7 C4         11.6930  -10.9390   23.2670 C.3       1 00P        -0.0095
      8 C3         13.0620  -10.6940   22.5400 C.3       1 00P        -0.0433
      9 N2         10.3290  -12.8470   24.1710 N.4       1 00P         0.2207
     10 C31        17.3710  -16.9340   24.3950 C.3       1 00P         0.0796
     11 N07        17.9450  -15.9540   23.4870 N.am      1 00P        -0.1517
     12 C08        19.0400  -16.1960   22.6510 C.2       1 00P         0.3166
     13 O09        19.7450  -17.2000   22.5880 O.2       1 00P        -0.3903
     14 N10        19.2010  -15.0530   21.8590 N.am      1 00P        -0.1349
     15 N11        18.2070  -14.1460   22.2110 N.am      1 00P        -0.1153
     16 C12        17.4300  -14.6990   23.2110 C.2       1 00P         0.3189
     17 O13        16.4570  -14.1480   23.6930 O.2       1 00P        -0.3902
     18 C14        20.4440  -14.5980   21.2530 C.3       1 00P         0.0780
     19 C15        20.1380  -13.4830   20.2800 C.2       1 00P        -0.0694
     20 C16        19.0090  -12.7640   20.4130 C.2       1 00P        -0.0506
     21 C17        17.9940  -12.8890   21.5140 C.3       1 00P         0.1760
     22 C18        16.5950  -12.9620   20.8130 C.2       1 00P         0.2121
     23 O19        16.3630  -13.7750   19.9310 O.2       1 00P        -0.3920
     24 C32        16.9020  -16.4020   25.7390 C.3       1 00P         0.0952
     25 S33        18.2030  -17.0280   26.7510 S.o2      1 00P        -0.0009
     26 O34        17.9480  -16.9120   28.1580 O.2       1 00P        -0.1693
     27 O35        18.5360  -18.3710   26.2200 O.2       1 00P        -0.1693
     28 C36        19.7060  -16.1130   26.4360 C.ar      1 00P         0.0883
     29 C37        20.2580  -15.3020   27.4200 C.ar      1 00P        -0.0369
     30 C38        21.4520  -14.6360   27.1510 C.ar      1 00P        -0.0600
     31 C39        22.0830  -14.7810   25.9190 C.ar      1 00P        -0.0616
     32 C40        21.5350  -15.5990   24.9340 C.ar      1 00P        -0.0600
     33 C41        20.3480  -16.2710   25.2010 C.ar      1 00P        -0.0369
     34 H1         15.4639  -12.1787   22.3710 H         1 00P         0.1852
     35 H2         14.6182  -11.7650   19.5716 H         1 00P         0.0523
     36 H3         15.0263  -10.3345   20.5785 H         1 00P         0.0523
     37 H4         12.6208  -10.5886   20.4410 H         1 00P         0.0320
     38 H5         13.1084  -13.4603   21.2600 H         1 00P         0.0270
     39 H6         12.1656  -12.8000   19.8809 H         1 00P         0.0270
     40 H7         10.7420  -13.8559   21.7072 H         1 00P         0.0320
     41 H8         10.3330  -12.1395   21.3702 H         1 00P         0.0320
     42 H9         12.3010  -13.0001   23.5418 H         1 00P         0.0850
     43 H10        11.7581  -10.5947   24.3097 H         1 00P         0.0320
     44 H11        10.8927  -10.3903   22.7489 H         1 00P         0.0320
     45 H12        13.2243   -9.6083   22.4698 H         1 00P         0.0270
     46 H13        13.8596  -11.1454   23.1482 H         1 00P         0.0270
     47 H14        10.1730  -13.8411   24.1112 H         1 00P         0.1997
     48 H15         9.4795  -12.3588   23.9344 H         1 00P         0.1997
     49 H16        10.6046  -12.6061   25.1102 H         1 00P         0.1997
     50 H17        18.1334  -17.7038   24.5852 H         1 00P         0.0588
     51 H18        16.5054  -17.3912   23.8934 H         1 00P         0.0588
     52 H19        20.9211  -15.4329   20.7188 H         1 00P         0.0671
     53 H20        21.1223  -14.2282   22.0360 H         1 00P         0.0671
     54 H21        20.8320  -13.2614   19.4706 H         1 00P         0.0483
     55 H22        18.8107  -12.0166   19.6462 H         1 00P         0.0494
     56 H23        18.0528  -12.0387   22.2093 H         1 00P         0.0944
     57 H24        16.8588  -15.3030   25.7554 H         1 00P         0.0528
     58 H25        15.9224  -16.8118   26.0259 H         1 00P         0.0528
     59 H26        19.7682  -15.1894   28.3804 H         1 00P         0.0636
     60 H27        21.8937  -13.9988   27.9086 H         1 00P         0.0618
     61 H28        23.0092  -14.2526   25.7244 H         1 00P         0.0618
     62 H29        22.0265  -15.7098   23.9742 H         1 00P         0.0618
     63 H30        19.9163  -16.9214   24.4489 H         1 00P         0.0636
@<TRIPOS>BOND
     1    1    2 1  
     2    2    3 1  
     3    3    8 1  
     4    3    4 1  
     5    4    5 1  
     6    5    6 1  
     7    6    9 1  
     8    7    6 1  
     9    8    7 1  
    10   11   10 1  
    11   16   11 am 
    12   11   12 am 
    13   14   12 am 
    14   12   13 2  
    15   14   18 1  
    16   15   14 1  
    17   21   15 1  
    18   15   16 am 
    19   16   17 2  
    20   22   21 1  
    21   21   20 1  
    22   20   19 2  
    23   19   18 1  
    24   22   23 2  
    25   24   25 1  
    26   25   28 1  
    27   25   27 2  
    28   25   26 2  
    29   28   33 ar 
    30   28   29 ar 
    31   29   30 ar 
    32   30   31 ar 
    33   32   31 ar 
    34   33   32 ar 
    35   10   24 1  
    36   22    1 am 
    37    1   34 1  
    38    2   35 1  
    39    2   36 1  
    40    3   37 1  
    41    4   38 1  
    42    4   39 1  
    43    5   40 1  
    44    5   41 1  
    45    6   42 1  
    46    7   43 1  
    47    7   44 1  
    48    8   45 1  
    49    8   46 1  
    50    9   47 1  
    51    9   48 1  
    52    9   49 1  
    53   10   50 1  
    54   10   51 1  
    55   18   52 1  
    56   18   53 1  
    57   19   54 1  
    58   20   55 1  
    59   21   56 1  
    60   24   57 1  
    61   24   58 1  
    62   29   59 1  
    63   30   60 1  
    64   31   61 1  
    65   32   62 1  
    66   33   63 1  
@<TRIPOS>SUBSTRUCTURE
     1 00P         1

