### 
### Created by X-TOOL on Mon Sep 10 21:12:47 2018
### 

@<TRIPOS>MOLECULE
1db1_ligand
   74    76     1     0     0
SMALL
GAST_HUCK


@<TRIPOS>ATOM
      1 O2         17.0290   18.0710   34.8190 O.3       1 VDX        -0.3898
      2 O3          4.4890   26.9460   35.0540 O.3       1 VDX        -0.3891
      3 C1         14.1390   17.9530   35.7550 C.3       1 VDX         0.0864
      4 C2         14.8790   16.8930   34.8950 C.3       1 VDX         0.0102
      5 C3         15.9920   17.5340   33.9620 C.3       1 VDX         0.0660
      6 C4         15.3680   18.6720   33.0490 C.3       1 VDX        -0.0024
      7 C5         14.6220   19.7240   33.8640 C.2       1 VDX        -0.0535
      8 C6         14.7970   21.1200   33.7920 C.2       1 VDX        -0.0886
      9 C7         14.1740   22.2860   34.5140 C.2       1 VDX        -0.0795
     10 C8         13.9660   23.4880   34.0420 C.2       1 VDX        -0.0477
     11 C9         14.3540   23.9270   32.5440 C.3       1 VDX        -0.0111
     12 C10        13.6020   19.0750   34.8280 C.2       1 VDX        -0.0401
     13 C11        13.0880   24.4900   31.6710 C.3       1 VDX        -0.0386
     14 C12        12.1470   25.4430   32.5640 C.3       1 VDX        -0.0421
     15 C13        11.7530   24.8970   34.0700 C.3       1 VDX        -0.0125
     16 C14        13.1480   24.5380   34.7770 C.3       1 VDX         0.0059
     17 C15        12.6610   24.2660   36.3500 C.3       1 VDX        -0.0357
     18 C16        11.4290   25.2310   36.4970 C.3       1 VDX        -0.0465
     19 C17        11.2760   25.9340   35.1060 C.3       1 VDX        -0.0301
     20 C18        10.7690   23.5700   33.7790 C.3       1 VDX        -0.0565
     21 C19        12.2910   19.4550   34.8520 C.2       1 VDX        -0.1221
     22 C20         9.8490   26.5460   34.7260 C.3       1 VDX        -0.0403
     23 C21         9.8040   27.9560   35.4820 C.3       1 VDX        -0.0621
     24 C22         8.5750   25.8240   35.2680 C.3       1 VDX        -0.0501
     25 C23         7.3310   26.0600   34.4050 C.3       1 VDX        -0.0502
     26 C24         6.1520   25.2660   34.6720 C.3       1 VDX        -0.0245
     27 C25         4.7750   25.7760   34.3360 C.3       1 VDX         0.0605
     28 C26         4.7010   26.0100   32.8420 C.3       1 VDX        -0.0363
     29 C27         3.6680   24.7300   34.7230 C.3       1 VDX        -0.0363
     30 O1         13.1190   17.3590   36.6200 O.3       1 VDX        -0.3798
     31 H1         17.3996   17.3705   35.3429 H         1 VDX         0.2100
     32 H2          5.1178   27.6196   34.8230 H         1 VDX         0.2101
     33 H3         14.8832   18.4130   36.4218 H         1 VDX         0.0751
     34 H4         14.1427   16.3766   34.2615 H         1 VDX         0.0338
     35 H5         15.3584   16.1661   35.5671 H         1 VDX         0.0338
     36 H6         16.4203   16.7547   33.3145 H         1 VDX         0.0615
     37 H7         14.6655   18.2107   32.3393 H         1 VDX         0.0412
     38 H8         16.1796   19.1648   32.4937 H         1 VDX         0.0412
     39 H9         15.5422   21.4205   33.0570 H         1 VDX         0.0472
     40 H10        13.8624   22.1087   35.5423 H         1 VDX         0.0303
     41 H11        14.7724   23.0527   32.0238 H         1 VDX         0.0491
     42 H12        15.1154   24.7189   32.6009 H         1 VDX         0.0491
     43 H13        12.4948   23.6379   31.3076 H         1 VDX         0.0296
     44 H14        13.4696   25.0635   30.8134 H         1 VDX         0.0296
     45 H15        11.2093   25.5985   32.0103 H         1 VDX         0.0275
     46 H16        12.6659   26.4055   32.6840 H         1 VDX         0.0275
     47 H17        13.7800   25.4383   34.7811 H         1 VDX         0.0531
     48 H18        13.4570   24.5263   37.0632 H         1 VDX         0.0299
     49 H19        12.3642   23.2173   36.4985 H         1 VDX         0.0299
     50 H20        11.6163   25.9755   37.2848 H         1 VDX         0.0270
     51 H21        10.5209   24.6600   36.7405 H         1 VDX         0.0270
     52 H22        11.9775   26.7812   35.0943 H         1 VDX         0.0311
     53 H23        11.2384   22.9244   33.0221 H         1 VDX         0.0237
     54 H24         9.7901   23.9127   33.4124 H         1 VDX         0.0237
     55 H25        10.6332   23.0026   34.7115 H         1 VDX         0.0237
     56 H26        11.9411   20.2458   34.1901 H         1 VDX         0.0191
     57 H27        11.5951   18.9673   35.5331 H         1 VDX         0.0191
     58 H28         9.7775   26.6519   33.6335 H         1 VDX         0.0301
     59 H29         8.8450   28.4531   35.2740 H         1 VDX         0.0233
     60 H30        10.6300   28.5894   35.1262 H         1 VDX         0.0233
     61 H31         9.9060   27.7947   36.5653 H         1 VDX         0.0233
     62 H32         8.3702   26.1929   36.2838 H         1 VDX         0.0268
     63 H33         8.7750   24.7429   35.3038 H         1 VDX         0.0268
     64 H34         7.6193   25.8741   33.3599 H         1 VDX         0.0266
     65 H35         7.0468   27.1159   34.5247 H         1 VDX         0.0266
     66 H36         6.1530   25.0600   35.7525 H         1 VDX         0.0293
     67 H37         6.2789   24.3237   34.1189 H         1 VDX         0.0293
     68 H38         3.7004   26.3833   32.5785 H         1 VDX         0.0257
     69 H39         4.8906   25.0644   32.3129 H         1 VDX         0.0257
     70 H40         5.4581   26.7523   32.5492 H         1 VDX         0.0257
     71 H41         3.7025   24.5435   35.8065 H         1 VDX         0.0257
     72 H42         3.8481   23.7887   34.1831 H         1 VDX         0.0257
     73 H43         2.6784   25.1255   34.4504 H         1 VDX         0.0257
     74 H44        12.4338   16.9774   36.0839 H         1 VDX         0.2129
@<TRIPOS>BOND
     1    5    1 1  
     2    4    3 1  
     3    5    4 1  
     4    5    6 1  
     5    6    7 1  
     6    7    8 2  
     7    7   12 1  
     8    8    9 1  
     9    9   10 2  
    10   10   11 1  
    11   10   16 1  
    12   11   13 1  
    13   12    3 1  
    14   12   21 2  
    15   13   14 1  
    16   14   15 1  
    17   15   16 1  
    18   15   19 1  
    19   15   20 1  
    20   16   17 1  
    21   17   18 1  
    22   18   19 1  
    23   19   22 1  
    24   22   23 1  
    25   22   24 1  
    26   24   25 1  
    27   25   26 1  
    28   26   27 1  
    29   27   28 1  
    30   27   29 1  
    31    3   30 1  
    32   27    2 1  
    33    1   31 1  
    34    2   32 1  
    35    3   33 1  
    36    4   34 1  
    37    4   35 1  
    38    5   36 1  
    39    6   37 1  
    40    6   38 1  
    41    8   39 1  
    42    9   40 1  
    43   11   41 1  
    44   11   42 1  
    45   13   43 1  
    46   13   44 1  
    47   14   45 1  
    48   14   46 1  
    49   16   47 1  
    50   17   48 1  
    51   17   49 1  
    52   18   50 1  
    53   18   51 1  
    54   19   52 1  
    55   20   53 1  
    56   20   54 1  
    57   20   55 1  
    58   21   56 1  
    59   21   57 1  
    60   22   58 1  
    61   23   59 1  
    62   23   60 1  
    63   23   61 1  
    64   24   62 1  
    65   24   63 1  
    66   25   64 1  
    67   25   65 1  
    68   26   66 1  
    69   26   67 1  
    70   28   68 1  
    71   28   69 1  
    72   28   70 1  
    73   29   71 1  
    74   29   72 1  
    75   29   73 1  
    76   30   74 1  
@<TRIPOS>SUBSTRUCTURE
     1 VDX         1

