### 
### Created by X-TOOL on Mon Sep 10 21:12:45 2018
### 

@<TRIPOS>MOLECULE
1dbb_ligand
   53    56     1     0     0
SMALL
GAST_HUCK


@<TRIPOS>ATOM
      1 C1        -19.9120   42.8500  -15.1180 C.3       1 STR        -0.0611
      2 C2        -18.7140   42.2110  -15.7850 C.3       1 STR         0.0243
      3 C3        -17.5580   43.1900  -15.5720 C.2       1 STR         0.1764
      4 O3        -16.8370   43.6090  -16.5000 O.2       1 STR        -0.3440
      5 C4        -17.3070   43.5630  -14.2920 C.2       1 STR         0.0476
      6 C5        -18.3340   43.5260  -13.3280 C.2       1 STR        -0.0413
      7 C6        -18.1250   43.8940  -11.8890 C.3       1 STR        -0.0169
      8 C7        -19.1200   44.8880  -11.5040 C.3       1 STR        -0.0393
      9 C8        -20.5190   44.4360  -11.7200 C.3       1 STR        -0.0416
     10 C9        -20.7390   44.1110  -13.1940 C.3       1 STR        -0.0619
     11 C10       -19.7460   43.0470  -13.6120 C.3       1 STR        -0.0378
     12 C11       -22.1270   43.6600  -13.4710 C.3       1 STR        -0.0582
     13 C12       -23.0710   44.6670  -12.9620 C.3       1 STR        -0.0456
     14 C13       -22.8880   45.1430  -11.4600 C.3       1 STR        -0.0105
     15 C14       -21.4660   45.5780  -11.3090 C.3       1 STR        -0.0308
     16 C15       -21.5600   46.3950  -10.0120 C.3       1 STR        -0.0469
     17 C16       -22.9710   46.9580   -9.9290 C.3       1 STR        -0.0335
     18 C17       -23.7580   46.3120  -11.0520 C.3       1 STR         0.0379
     19 C18       -23.1280   44.0010  -10.4700 C.3       1 STR        -0.0569
     20 C19       -19.9500   41.6840  -12.9700 C.3       1 STR        -0.0890
     21 C20       -25.1940   46.1310  -10.7280 C.2       1 STR         0.1055
     22 O20       -25.5790   46.0380   -9.5860 O.2       1 STR        -0.3916
     23 C21       -26.2210   46.1930  -11.7970 C.3       1 STR         0.0097
     24 H1        -20.7883   42.2075  -15.2893 H         1 STR         0.0172
     25 H2        -20.0826   43.8337  -15.5798 H         1 STR         0.0172
     26 H3        -18.9031   42.0672  -16.8590 H         1 STR         0.0483
     27 H4        -18.4868   41.2406  -15.3195 H         1 STR         0.0483
     28 H5        -16.3084   43.8921  -14.0086 H         1 STR         0.1318
     29 H6        -17.1161   44.3122  -11.7580 H         1 STR         0.0450
     30 H7        -18.2354   42.9987  -11.2595 H         1 STR         0.0450
     31 H8        -18.9519   45.7982  -12.0983 H         1 STR         0.0293
     32 H9        -18.9886   45.1177  -10.4363 H         1 STR         0.0293
     33 H10       -20.7205   43.5430  -11.1102 H         1 STR         0.0299
     34 H11       -20.5517   45.0214  -13.7822 H         1 STR         0.0187
     35 H12       -22.3088   42.6980  -12.9694 H         1 STR         0.0259
     36 H13       -22.2658   43.5400  -14.5556 H         1 STR         0.0259
     37 H14       -24.0835   44.2471  -13.0543 H         1 STR         0.0272
     38 H15       -22.9829   45.5563  -13.6033 H         1 STR         0.0272
     39 H16       -21.2573   46.3359  -12.0784 H         1 STR         0.0310
     40 H17       -20.8283   47.2161  -10.0312 H         1 STR         0.0270
     41 H18       -21.3621   45.7477   -9.1449 H         1 STR         0.0270
     42 H19       -22.9526   48.0503  -10.0572 H         1 STR         0.0293
     43 H20       -23.4226   46.7104   -8.9570 H         1 STR         0.0293
     44 H21       -23.7575   47.0055  -11.9059 H         1 STR         0.0535
     45 H22       -22.5045   43.1382  -10.7474 H         1 STR         0.0237
     46 H23       -24.1886   43.7103  -10.4956 H         1 STR         0.0237
     47 H24       -22.8633   44.3335   -9.4554 H         1 STR         0.0237
     48 H25       -19.1823   40.9871  -13.3374 H         1 STR         0.0112
     49 H26       -20.9477   41.3013  -13.2311 H         1 STR         0.0112
     50 H27       -19.8675   41.7774  -11.8771 H         1 STR         0.0112
     51 H28       -27.2172   46.0359  -11.3579 H         1 STR         0.0459
     52 H29       -26.0215   45.4097  -12.5430 H         1 STR         0.0459
     53 H30       -26.1858   47.1794  -12.2826 H         1 STR         0.0459
@<TRIPOS>BOND
     1    1    2 1  
     2    1   11 1  
     3    2    3 1  
     4    3    4 2  
     5    3    5 1  
     6    5    6 2  
     7    6    7 1  
     8    6   11 1  
     9    7    8 1  
    10    8    9 1  
    11    9   10 1  
    12    9   15 1  
    13   10   11 1  
    14   10   12 1  
    15   11   20 1  
    16   12   13 1  
    17   13   14 1  
    18   14   15 1  
    19   14   18 1  
    20   14   19 1  
    21   15   16 1  
    22   16   17 1  
    23   17   18 1  
    24   18   21 1  
    25   21   22 2  
    26   21   23 1  
    27    1   24 1  
    28    1   25 1  
    29    2   26 1  
    30    2   27 1  
    31    5   28 1  
    32    7   29 1  
    33    7   30 1  
    34    8   31 1  
    35    8   32 1  
    36    9   33 1  
    37   10   34 1  
    38   12   35 1  
    39   12   36 1  
    40   13   37 1  
    41   13   38 1  
    42   15   39 1  
    43   16   40 1  
    44   16   41 1  
    45   17   42 1  
    46   17   43 1  
    47   18   44 1  
    48   19   45 1  
    49   19   46 1  
    50   19   47 1  
    51   20   48 1  
    52   20   49 1  
    53   20   50 1  
    54   23   51 1  
    55   23   52 1  
    56   23   53 1  
@<TRIPOS>SUBSTRUCTURE
     1 STR         1

