### 
### Created by X-TOOL on Mon Sep 10 21:12:45 2018
### 

@<TRIPOS>MOLECULE
1dbj_ligand
   51    54     1     0     0
SMALL
GAST_HUCK


@<TRIPOS>ATOM
      1 C1        -19.3250   42.4490  -11.1620 C.3       1 AE2        -0.0448
      2 C2        -20.0690   41.1030  -11.1410 C.3       1 AE2        -0.0263
      3 C3        -20.2460   40.5980  -12.5670 C.3       1 AE2         0.0555
      4 O3        -21.0010   39.3920  -12.5720 O.3       1 AE2        -0.3918
      5 C4        -20.9990   41.6510  -13.4480 C.3       1 AE2        -0.0235
      6 C5        -20.1430   42.9430  -13.4860 C.3       1 AE2        -0.0330
      7 C6        -20.8430   43.9470  -14.4220 C.3       1 AE2        -0.0494
      8 C7        -22.1420   44.5000  -13.8430 C.3       1 AE2        -0.0496
      9 C8        -22.0560   44.9550  -12.4050 C.3       1 AE2        -0.0353
     10 C9        -21.4070   43.8820  -11.5080 C.3       1 AE2        -0.0326
     11 C10       -19.9920   43.5240  -12.0440 C.3       1 AE2        -0.0260
     12 C11       -21.3630   44.3320  -10.0840 C.3       1 AE2        -0.0500
     13 C12       -22.7520   44.7200   -9.5790 C.3       1 AE2        -0.0423
     14 C13       -23.3970   45.7460  -10.4630 C.3       1 AE2         0.0350
     15 C14       -23.4440   45.2460  -11.8930 C.3       1 AE2        -0.0257
     16 C15       -24.5160   46.0880  -12.5730 C.3       1 AE2        -0.0351
     17 C16       -25.5820   46.1650  -11.4850 C.3       1 AE2         0.0229
     18 C17       -24.8410   45.9420  -10.1700 C.2       1 AE2         0.1328
     19 O17       -25.3300   45.9550   -9.0410 O.2       1 AE2        -0.3322
     20 C18       -22.7230   47.1090  -10.2410 C.3       1 AE2        -0.0545
     21 C19       -18.9870   44.6450  -11.9900 C.3       1 AE2        -0.0590
     22 H1        -18.3069   42.2750  -11.5403 H         1 AE2         0.0271
     23 H2        -19.2731   42.8311  -10.1318 H         1 AE2         0.0271
     24 H3        -21.0561   41.2369  -10.6744 H         1 AE2         0.0290
     25 H4        -19.4863   40.3710  -10.5626 H         1 AE2         0.0290
     26 H5        -19.2532   40.4080  -13.0009 H         1 AE2         0.0593
     27 H6        -21.1041   39.0880  -13.4661 H         1 AE2         0.2098
     28 H7        -21.9841   41.8686  -13.0096 H         1 AE2         0.0293
     29 H8        -21.1297   41.2597  -14.4677 H         1 AE2         0.0293
     30 H9        -19.1437   42.7114  -13.8832 H         1 AE2         0.0307
     31 H10       -21.0707   43.4403  -15.3714 H         1 AE2         0.0268
     32 H11       -20.1579   44.7869  -14.6097 H         1 AE2         0.0268
     33 H12       -22.9069   43.7121  -13.9066 H         1 AE2         0.0268
     34 H13       -22.4499   45.3603  -14.4555 H         1 AE2         0.0268
     35 H14       -21.4503   45.8720  -12.3583 H         1 AE2         0.0305
     36 H15       -22.0275   42.9749  -11.5551 H         1 AE2         0.0309
     37 H16       -20.6969   45.2037  -10.0045 H         1 AE2         0.0267
     38 H17       -20.9717   43.5136   -9.4619 H         1 AE2         0.0267
     39 H18       -22.6598   45.1320   -8.5632 H         1 AE2         0.0255
     40 H19       -23.3862   43.8216   -9.5542 H         1 AE2         0.0255
     41 H20       -23.8948   44.2432  -11.8599 H         1 AE2         0.0294
     42 H21       -24.9007   45.5940  -13.4774 H         1 AE2         0.0291
     43 H22       -24.1362   47.0868  -12.8341 H         1 AE2         0.0291
     44 H23       -26.3415   45.3836  -11.6353 H         1 AE2         0.0487
     45 H24       -26.0660   47.1528  -11.4905 H         1 AE2         0.0487
     46 H25       -22.7508   47.3618   -9.1708 H         1 AE2         0.0219
     47 H26       -23.2583   47.8805  -10.8140 H         1 AE2         0.0219
     48 H27       -21.6774   47.0605  -10.5792 H         1 AE2         0.0219
     49 H28       -18.0240   44.2936  -12.3889 H         1 AE2         0.0235
     50 H29       -18.8554   44.9696  -10.9473 H         1 AE2         0.0235
     51 H30       -19.3477   45.4903  -12.5945 H         1 AE2         0.0235
@<TRIPOS>BOND
     1    1    2 1  
     2    1   11 1  
     3    2    3 1  
     4    3    4 1  
     5    3    5 1  
     6    5    6 1  
     7    6    7 1  
     8    6   11 1  
     9    7    8 1  
    10    8    9 1  
    11    9   10 1  
    12    9   15 1  
    13   10   11 1  
    14   10   12 1  
    15   11   21 1  
    16   12   13 1  
    17   13   14 1  
    18   14   15 1  
    19   14   18 1  
    20   14   20 1  
    21   15   16 1  
    22   16   17 1  
    23   17   18 1  
    24   18   19 2  
    25    1   22 1  
    26    1   23 1  
    27    2   24 1  
    28    2   25 1  
    29    3   26 1  
    30    4   27 1  
    31    5   28 1  
    32    5   29 1  
    33    6   30 1  
    34    7   31 1  
    35    7   32 1  
    36    8   33 1  
    37    8   34 1  
    38    9   35 1  
    39   10   36 1  
    40   12   37 1  
    41   12   38 1  
    42   13   39 1  
    43   13   40 1  
    44   15   41 1  
    45   16   42 1  
    46   16   43 1  
    47   17   44 1  
    48   17   45 1  
    49   20   46 1  
    50   20   47 1  
    51   20   48 1  
    52   21   49 1  
    53   21   50 1  
    54   21   51 1  
@<TRIPOS>SUBSTRUCTURE
     1 AE2         1

