### 
### Created by X-TOOL on Mon Sep 10 21:12:45 2018
### 

@<TRIPOS>MOLECULE
1dbk_ligand
   49    52     1     0     0
SMALL
GAST_HUCK


@<TRIPOS>ATOM
      1 C1        -19.0460   42.4230  -11.7190 C.3       1 ANO        -0.0310
      2 C2        -19.5520   40.9680  -11.6830 C.3       1 ANO         0.0216
      3 C3        -20.3890   40.3850  -12.8350 C.2       1 ANO         0.1053
      4 O3        -20.6990   39.1910  -12.9790 O.2       1 ANO        -0.3916
      5 C4        -20.9200   41.5200  -13.7240 C.3       1 ANO         0.0244
      6 C5        -20.1610   42.8400  -13.8500 C.3       1 ANO        -0.0194
      7 C6        -21.0280   43.7030  -14.6890 C.3       1 ANO        -0.0473
      8 C7        -22.2800   44.2190  -14.0010 C.3       1 ANO        -0.0494
      9 C8        -22.0410   44.7990  -12.6250 C.3       1 ANO        -0.0353
     10 C9        -21.3010   43.7300  -11.7720 C.3       1 ANO        -0.0323
     11 C10       -19.9280   43.4280  -12.4310 C.3       1 ANO        -0.0220
     12 C11       -21.1190   44.2020  -10.3150 C.3       1 ANO        -0.0500
     13 C12       -22.4600   44.4940   -9.6440 C.3       1 ANO        -0.0423
     14 C13       -23.1580   45.5110  -10.4710 C.3       1 ANO         0.0350
     15 C14       -23.3970   45.1320  -11.9540 C.3       1 ANO        -0.0257
     16 C15       -24.3860   46.1920  -12.4980 C.3       1 ANO        -0.0351
     17 C16       -25.3630   46.3020  -11.3180 C.3       1 ANO         0.0229
     18 C17       -24.6340   45.6440  -10.1270 C.2       1 ANO         0.1328
     19 O17       -25.1770   45.2560   -9.0850 O.2       1 ANO        -0.3322
     20 C18       -22.4890   46.8500  -10.2010 C.3       1 ANO        -0.0545
     21 C19       -19.1510   44.7480  -12.4620 C.3       1 ANO        -0.0588
     22 H1        -18.0667   42.4240  -12.2199 H         1 ANO         0.0296
     23 H2        -18.9264   42.7611  -10.6791 H         1 ANO         0.0296
     24 H3        -20.1645   40.8736  -10.7742 H         1 ANO         0.0494
     25 H4        -18.6604   40.3303  -11.5921 H         1 ANO         0.0494
     26 H5        -21.9225   41.7702  -13.3467 H         1 ANO         0.0497
     27 H6        -21.0030   41.1085  -14.7407 H         1 ANO         0.0497
     28 H7        -19.1900   42.6868  -14.3436 H         1 ANO         0.0331
     29 H8        -21.3380   43.1216  -15.5698 H         1 ANO         0.0270
     30 H9        -20.4345   44.5708  -15.0127 H         1 ANO         0.0270
     31 H10       -22.9888   43.3834  -13.9040 H         1 ANO         0.0268
     32 H11       -22.7219   45.0033  -14.6332 H         1 ANO         0.0268
     33 H12       -21.4302   45.7105  -12.7023 H         1 ANO         0.0305
     34 H13       -21.9009   42.8080  -11.7638 H         1 ANO         0.0309
     35 H14       -20.5111   45.1187  -10.3105 H         1 ANO         0.0267
     36 H15       -20.6003   43.4153   -9.7475 H         1 ANO         0.0267
     37 H16       -22.2955   44.8836   -8.6286 H         1 ANO         0.0255
     38 H17       -23.0620   43.5749   -9.5910 H         1 ANO         0.0255
     39 H18       -23.9533   44.1833  -11.9769 H         1 ANO         0.0294
     40 H19       -24.8910   45.8442  -13.4112 H         1 ANO         0.0291
     41 H20       -23.8836   47.1497  -12.6988 H         1 ANO         0.0291
     42 H21       -26.2985   45.7678  -11.5405 H         1 ANO         0.0487
     43 H22       -25.5861   47.3566  -11.0988 H         1 ANO         0.0487
     44 H23       -22.3801   46.9933   -9.1158 H         1 ANO         0.0219
     45 H24       -23.1068   47.6592  -10.6175 H         1 ANO         0.0219
     46 H25       -21.4962   46.8659  -10.6743 H         1 ANO         0.0219
     47 H26       -18.1660   44.5829  -12.9230 H         1 ANO         0.0235
     48 H27       -19.0177   45.1192  -11.4352 H         1 ANO         0.0235
     49 H28       -19.7114   45.4896  -13.0502 H         1 ANO         0.0235
@<TRIPOS>BOND
     1    1    2 1  
     2    1   11 1  
     3    2    3 1  
     4    3    4 2  
     5    3    5 1  
     6    5    6 1  
     7    6    7 1  
     8    6   11 1  
     9    7    8 1  
    10    8    9 1  
    11    9   10 1  
    12    9   15 1  
    13   10   11 1  
    14   10   12 1  
    15   11   21 1  
    16   12   13 1  
    17   13   14 1  
    18   14   15 1  
    19   14   18 1  
    20   14   20 1  
    21   15   16 1  
    22   16   17 1  
    23   17   18 1  
    24   18   19 2  
    25    1   22 1  
    26    1   23 1  
    27    2   24 1  
    28    2   25 1  
    29    5   26 1  
    30    5   27 1  
    31    6   28 1  
    32    7   29 1  
    33    7   30 1  
    34    8   31 1  
    35    8   32 1  
    36    9   33 1  
    37   10   34 1  
    38   12   35 1  
    39   12   36 1  
    40   13   37 1  
    41   13   38 1  
    42   15   39 1  
    43   16   40 1  
    44   16   41 1  
    45   17   42 1  
    46   17   43 1  
    47   20   44 1  
    48   20   45 1  
    49   20   46 1  
    50   21   47 1  
    51   21   48 1  
    52   21   49 1  
@<TRIPOS>SUBSTRUCTURE
     1 ANO         1

