### 
### Created by X-TOOL on Fri Nov 18 12:23:56 2016
### 

@<TRIPOS>MOLECULE
1dg9_ligand
   35    35     1     0     0
SMALL
GAST_HUCK


@<TRIPOS>ATOM
      1 N1          8.0230   42.5550   27.0260 N.4       1 EPE         0.2439
      2 C2          6.5510   42.5080   26.9560 C.3       1 EPE         0.0095
      3 C3          5.7540   43.7960   27.0300 C.3       1 EPE         0.0095
      4 N4          6.2020   44.6540   25.8930 N.4       1 EPE         0.2443
      5 C5          7.6890   44.8360   26.0050 C.3       1 EPE         0.0095
      6 C6          8.4490   43.5100   25.9790 C.3       1 EPE         0.0095
      7 C7          5.3320   45.8700   25.6410 C.3       1 EPE        -0.0078
      8 C8          3.9310   45.7400   26.2350 C.3       1 EPE         0.0841
      9 O8          2.8360   45.7740   25.3050 O.3       1 EPE        -0.3898
     10 C9          8.6030   41.3260   27.6150 C.3       1 EPE        -0.0092
     11 C10         9.2410   40.3430   26.6070 C.3       1 EPE         0.1322
     12 S          10.3530   39.2790   27.5250 S.o2      1 EPE         0.0848
     13 O1S        11.3640   40.0880   28.1720 O.2       1 EPE        -0.1472
     14 O2S         9.5170   38.6240   28.4960 O.2       1 EPE        -0.1472
     15 O3S        10.8860   38.3810   26.5140 O.3       1 EPE        -0.2538
     16 H1          8.1802   43.1503   27.8241 H         1 EPE         0.2038
     17 H2          6.2120   41.8748   27.7892 H         1 EPE         0.0868
     18 H3          6.2922   42.0272   26.0011 H         1 EPE         0.0868
     19 H4          5.9469   44.3050   27.9859 H         1 EPE         0.0868
     20 H5          4.6791   43.5806   26.9397 H         1 EPE         0.0868
     21 H6          6.0732   44.0956   25.0638 H         1 EPE         0.2038
     22 H7          7.9104   45.3500   26.9520 H         1 EPE         0.0868
     23 H8          8.0323   45.4549   25.1629 H         1 EPE         0.0868
     24 H9          8.2923   43.0401   24.9969 H         1 EPE         0.0868
     25 H10         9.5195   43.7215   26.1177 H         1 EPE         0.0868
     26 H11         5.2391   46.0145   24.5545 H         1 EPE         0.0837
     27 H12         5.8209   46.7485   26.0873 H         1 EPE         0.0837
     28 H13         3.7913   46.5672   26.9465 H         1 EPE         0.0610
     29 H14         3.8833   44.7817   26.7728 H         1 EPE         0.0610
     30 H15         2.0171   45.6857   25.7784 H         1 EPE         0.2096
     31 H16         7.8006   40.7934   28.1464 H         1 EPE         0.0831
     32 H17         9.3803   41.6280   28.3323 H         1 EPE         0.0831
     33 H18         9.8007   40.9003   25.8414 H         1 EPE         0.0579
     34 H19         8.4584   39.7403   26.1230 H         1 EPE         0.0579
     35 H20        10.1754   37.8813   26.1296 H         1 EPE         0.2445
@<TRIPOS>BOND
     1    1    2 1  
     2    1    6 1  
     3    1   10 1  
     4    2    3 1  
     5    3    4 1  
     6    4    5 1  
     7    4    7 1  
     8    5    6 1  
     9    7    8 1  
    10    8    9 1  
    11   10   11 1  
    12   11   12 1  
    13   12   13 2  
    14   12   14 2  
    15   12   15 1  
    16    1   16 1  
    17    2   17 1  
    18    2   18 1  
    19    3   19 1  
    20    3   20 1  
    21    4   21 1  
    22    5   22 1  
    23    5   23 1  
    24    6   24 1  
    25    6   25 1  
    26    7   26 1  
    27    7   27 1  
    28    8   28 1  
    29    8   29 1  
    30    9   30 1  
    31   10   31 1  
    32   10   32 1  
    33   11   33 1  
    34   11   34 1  
    35   15   35 1  
@<TRIPOS>SUBSTRUCTURE
     1 EPE         1

