### 
### Created by X-TOOL on Mon Sep 10 21:12:47 2018
### 

@<TRIPOS>MOLECULE
1dgm_ligand
   32    34     1     0     0
SMALL
GAST_HUCK


@<TRIPOS>ATOM
      1 O5'         2.9270    7.7700   15.4440 O.3       1 ADN        -0.3924
      2 C5'         2.7310    9.1180   15.0240 C.3       1 ADN         0.0730
      3 C4'         1.4510    9.2380   14.2270 C.3       1 ADN         0.1135
      4 O4'         0.3540    8.6900   15.0050 O.3       1 ADN        -0.3368
      5 C3'         1.0380   10.6680   13.9180 C.3       1 ADN         0.1146
      6 O3'         1.6390   11.1290   12.7120 O.3       1 ADN        -0.3864
      7 C2'        -0.4750   10.5590   13.7890 C.3       1 ADN         0.1385
      8 O2'        -0.9030   10.1620   12.5000 O.3       1 ADN        -0.3836
      9 C1'        -0.8020    9.4980   14.8460 C.3       1 ADN         0.2010
     10 N9         -1.1560   10.0440   16.1600 N.pl3     1 ADN        -0.1919
     11 C8         -0.7490   11.2280   16.7240 C.2       1 ADN         0.1123
     12 N7         -1.2400   11.4410   17.9220 N.2       1 ADN        -0.2958
     13 C5         -2.0240   10.3220   18.1650 C.ar      1 ADN         0.1045
     14 C6         -2.8180    9.9410   19.2640 C.ar      1 ADN         0.1298
     15 N6         -2.9670   10.6790   20.3660 N.pl3     1 ADN        -0.3152
     16 N1         -3.4660    8.7610   19.1890 N.ar      1 ADN        -0.2698
     17 C2         -3.3280    8.0260   18.0800 C.ar      1 ADN         0.0533
     18 N3         -2.6190    8.2760   16.9830 N.ar      1 ADN        -0.2714
     19 C4         -1.9820    9.4540   17.0890 C.ar      1 ADN         0.1613
     20 H1          2.9818    7.2066   14.6811 H         1 ADN         0.2095
     21 H2          3.5794    9.4299   14.3972 H         1 ADN         0.0584
     22 H3          2.6700    9.7687   15.9088 H         1 ADN         0.0584
     23 H4          1.5705    8.6813   13.2859 H         1 ADN         0.0647
     24 H5          1.3134   11.3441   14.7408 H         1 ADN         0.0648
     25 H6          1.3678   10.5724   11.9915 H         1 ADN         0.2100
     26 H7         -0.9526   11.5185   14.0364 H         1 ADN         0.0676
     27 H8         -0.5368    9.3098   12.2945 H         1 ADN         0.2101
     28 H9         -1.6412    8.8862   14.4834 H         1 ADN         0.0996
     29 H10        -0.0801   11.9262   16.2230 H         1 ADN         0.1349
     30 H11        -3.5635   10.3417   21.1350 H         1 ADN         0.1820
     31 H12        -2.4855   11.5859   20.4475 H         1 ADN         0.1820
     32 H13        -3.8740    7.0895   18.0746 H         1 ADN         0.0996
@<TRIPOS>BOND
     1    1    2 1  
     2    2    3 1  
     3    3    4 1  
     4    3    5 1  
     5    4    9 1  
     6    5    6 1  
     7    5    7 1  
     8    7    8 1  
     9    7    9 1  
    10    9   10 1  
    11   10   11 1  
    12   10   19 1  
    13   11   12 2  
    14   12   13 1  
    15   13   14 ar 
    16   13   19 ar 
    17   14   15 1  
    18   14   16 ar 
    19   16   17 ar 
    20   17   18 ar 
    21   18   19 ar 
    22    1   20 1  
    23    2   21 1  
    24    2   22 1  
    25    3   23 1  
    26    5   24 1  
    27    6   25 1  
    28    7   26 1  
    29    8   27 1  
    30    9   28 1  
    31   11   29 1  
    32   15   30 1  
    33   15   31 1  
    34   17   32 1  
@<TRIPOS>SUBSTRUCTURE
     1 ADN         1

