### 
### Created by X-TOOL on Fri Nov 18 11:54:36 2016
### 

@<TRIPOS>MOLECULE
1dhi_ligand
   53    55     1     0     0
SMALL
GAST_HUCK


@<TRIPOS>ATOM
      1 N1         16.6040   65.5800   46.0260 N.ar      1 MTX        -0.2668
      2 C2         15.9550   65.6840   47.1820 C.ar      1 MTX         0.1670
      3 NA2        14.7430   65.3130   47.4180 N.pl3     1 MTX        -0.3051
      4 N3         16.6870   66.2910   48.2200 N.ar      1 MTX        -0.2298
      5 C4         17.9370   66.8090   48.1580 C.ar      1 MTX         0.1540
      6 NA4        18.5270   67.3840   49.1750 N.pl3     1 MTX        -0.3052
      7 C4A        18.5560   66.6710   46.8620 C.ar      1 MTX         0.1326
      8 N5         19.7780   67.2190   46.6980 N.ar      1 MTX        -0.2616
      9 C6         20.3890   67.0840   45.5020 C.ar      1 MTX         0.0826
     10 C7         19.6710   66.3790   44.5290 C.ar      1 MTX         0.0478
     11 N8         18.4680   65.8980   44.6740 N.ar      1 MTX        -0.2649
     12 C8A        17.9050   66.0620   45.8690 C.ar      1 MTX         0.1183
     13 C9         21.7500   67.6610   45.3850 C.3       1 MTX         0.0825
     14 N10        22.1240   67.8650   43.9550 N.pl3     1 MTX        -0.2945
     15 CM         23.3380   67.1900   43.5620 C.3       1 MTX         0.0191
     16 C11        19.8840   70.1850   41.2790 C.ar      1 MTX         0.0362
     17 C12        21.0630   69.5220   40.8740 C.ar      1 MTX        -0.0535
     18 C13        21.8060   68.7730   41.7650 C.ar      1 MTX        -0.0379
     19 C14        21.3710   68.6690   43.1090 C.ar      1 MTX         0.0476
     20 C15        20.2490   69.3370   43.5120 C.ar      1 MTX        -0.0379
     21 C16        19.4980   70.0860   42.6050 C.ar      1 MTX        -0.0535
     22 C          19.0780   70.9960   40.3530 C.2       1 MTX         0.1968
     23 O          19.4700   71.1900   39.1920 O.2       1 MTX        -0.3908
     24 N          17.9200   71.5010   40.7610 N.am      1 MTX        -0.2725
     25 CA         17.0230   72.3730   39.9310 C.3       1 MTX         0.0951
     26 CT         16.3270   73.2540   40.9130 C.2       1 MTX         0.0601
     27 O1         16.1880   72.8610   42.1090 O.co2     1 MTX        -0.5666
     28 O2         15.8900   74.3110   40.4130 O.co2     1 MTX        -0.5666
     29 CB         15.8740   71.5400   39.3360 C.3       1 MTX        -0.0064
     30 CG         16.2830   70.5050   38.1680 C.3       1 MTX         0.0038
     31 CD         16.5780   70.9500   36.6970 C.2       1 MTX         0.0350
     32 OE1        17.0990   69.9990   36.0080 O.co2     1 MTX        -0.5690
     33 OE2        16.3560   72.1180   36.2870 O.co2     1 MTX        -0.5690
     34 H1         14.1871   64.8666   46.6747 H         1 MTX         0.1844
     35 H2         14.3307   65.4630   48.3499 H         1 MTX         0.1844
     36 H3         19.4799   67.7612   49.0717 H         1 MTX         0.1886
     37 H4         18.0384   67.4593   50.0786 H         1 MTX         0.1886
     38 H5         20.1568   66.2193   43.5732 H         1 MTX         0.0952
     39 H6         22.4726   66.9752   45.8513 H         1 MTX         0.0719
     40 H7         21.7757   68.6299   45.9051 H         1 MTX         0.0719
     41 H8         23.5415   67.3904   42.4997 H         1 MTX         0.0482
     42 H9         23.2214   66.1070   43.7150 H         1 MTX         0.0482
     43 H10        24.1762   67.5583   44.1717 H         1 MTX         0.0482
     44 H11        21.3912   69.6025   39.8440 H         1 MTX         0.0636
     45 H12        22.7103   68.2712   41.4401 H         1 MTX         0.0530
     46 H13        19.9384   69.2844   44.5492 H         1 MTX         0.0530
     47 H14        18.6028   70.5958   42.9423 H         1 MTX         0.0636
     48 H15        17.6229   71.2843   41.6909 H         1 MTX         0.1864
     49 H16        17.5815   72.9272   39.1623 H         1 MTX         0.0726
     50 H17        15.1312   72.2380   38.9224 H         1 MTX         0.0323
     51 H18        15.4186   70.9620   40.1537 H         1 MTX         0.0323
     52 H19        15.4592   69.7788   38.1050 H         1 MTX         0.0432
     53 H20        17.1935   69.9971   38.5188 H         1 MTX         0.0432
@<TRIPOS>BOND
     1    1   12 ar 
     2    1    2 ar 
     3    2    4 ar 
     4    2    3 1  
     5    4    5 ar 
     6    5    7 ar 
     7    5    6 1  
     8    7   12 ar 
     9    7    8 ar 
    10    8    9 ar 
    11    9   13 1  
    12    9   10 ar 
    13   10   11 ar 
    14   11   12 ar 
    15   13   14 1  
    16   14   19 1  
    17   14   15 1  
    18   19   20 ar 
    19   19   18 ar 
    20   18   17 ar 
    21   17   16 ar 
    22   16   22 1  
    23   16   21 ar 
    24   21   20 ar 
    25   22   24 am 
    26   22   23 2  
    27   24   25 1  
    28   25   29 1  
    29   25   26 1  
    30   26   28 ar 
    31   26   27 ar 
    32   29   30 1  
    33   30   31 1  
    34   31   33 ar 
    35   31   32 ar 
    36    3   34 1  
    37    3   35 1  
    38    6   36 1  
    39    6   37 1  
    40   10   38 1  
    41   13   39 1  
    42   13   40 1  
    43   15   41 1  
    44   15   42 1  
    45   15   43 1  
    46   17   44 1  
    47   18   45 1  
    48   20   46 1  
    49   21   47 1  
    50   24   48 1  
    51   25   49 1  
    52   29   50 1  
    53   29   51 1  
    54   30   52 1  
    55   30   53 1  
@<TRIPOS>SUBSTRUCTURE
     1 MTX         1

