### 
### Created by X-TOOL on Fri Nov 18 11:55:41 2016
### 

@<TRIPOS>MOLECULE
1dhj_ligand
   53    55     1     0     0
SMALL
GAST_HUCK


@<TRIPOS>ATOM
      1 N1         16.2100   65.2120   46.2830 N.ar      1 MTX        -0.2668
      2 C2         15.6380   65.3350   47.4680 C.ar      1 MTX         0.1670
      3 NA2        14.4580   64.9440   47.7320 N.pl3     1 MTX        -0.3051
      4 N3         16.3910   66.0070   48.4650 N.ar      1 MTX        -0.2298
      5 C4         17.6730   66.4950   48.3110 C.ar      1 MTX         0.1540
      6 NA4        18.3250   67.0990   49.2750 N.pl3     1 MTX        -0.3052
      7 C4A        18.2160   66.2600   46.9780 C.ar      1 MTX         0.1326
      8 N5         19.3830   66.7910   46.6640 N.ar      1 MTX        -0.2616
      9 C6         19.9280   66.6230   45.4530 C.ar      1 MTX         0.0826
     10 C7         19.1560   65.9130   44.5520 C.ar      1 MTX         0.0478
     11 N8         17.9510   65.4830   44.8130 N.ar      1 MTX        -0.2649
     12 C8A        17.4990   65.6500   46.0360 C.ar      1 MTX         0.1183
     13 C9         21.2660   67.2580   45.2860 C.3       1 MTX         0.0825
     14 N10        21.6000   67.3790   43.8170 N.pl3     1 MTX        -0.2945
     15 CM         22.5390   66.4600   43.1980 C.3       1 MTX         0.0191
     16 C11        19.3670   69.8130   41.3100 C.ar      1 MTX         0.0362
     17 C12        20.4520   68.9720   40.8240 C.ar      1 MTX        -0.0535
     18 C13        21.1820   68.1660   41.6460 C.ar      1 MTX        -0.0379
     19 C14        20.8250   68.2180   43.0060 C.ar      1 MTX         0.0476
     20 C15        19.8170   69.0330   43.4910 C.ar      1 MTX        -0.0379
     21 C16        19.0290   69.8290   42.6640 C.ar      1 MTX        -0.0535
     22 C          18.5840   70.6350   40.3750 C.2       1 MTX         0.1968
     23 O          19.0520   70.9900   39.2460 O.2       1 MTX        -0.3908
     24 N          17.2680   70.8060   40.6290 N.am      1 MTX        -0.2725
     25 CA         16.5520   71.8680   39.8380 C.3       1 MTX         0.0951
     26 CT         15.9490   72.8430   40.8090 C.2       1 MTX         0.0601
     27 O1         15.7680   72.5090   41.9660 O.co2     1 MTX        -0.5666
     28 O2         15.5680   73.9700   40.4220 O.co2     1 MTX        -0.5666
     29 CB         15.2630   71.2330   39.1920 C.3       1 MTX        -0.0064
     30 CG         15.6460   70.1970   37.9730 C.3       1 MTX         0.0038
     31 CD         16.1940   70.9990   36.7480 C.2       1 MTX         0.0350
     32 OE1        16.9320   70.2630   36.0500 O.co2     1 MTX        -0.5690
     33 OE2        15.9960   72.2280   36.5850 O.co2     1 MTX        -0.5690
     34 H1         13.9046   64.4554   47.0138 H         1 MTX         0.1844
     35 H2         14.0550   65.1157   48.6642 H         1 MTX         0.1844
     36 H3         19.2808   67.4462   49.1115 H         1 MTX         0.1886
     37 H4         17.8814   67.2263   50.1958 H         1 MTX         0.1886
     38 H5         19.5744   65.7016   43.5746 H         1 MTX         0.0952
     39 H6         22.0276   66.6393   45.7831 H         1 MTX         0.0719
     40 H7         21.2534   68.2596   45.7405 H         1 MTX         0.0719
     41 H8         22.6480   66.7098   42.1323 H         1 MTX         0.0482
     42 H9         22.1639   65.4307   43.2968 H         1 MTX         0.0482
     43 H10        23.5163   66.5436   43.6960 H         1 MTX         0.0482
     44 H11        20.6886   68.9875   39.7662 H         1 MTX         0.0636
     45 H12        21.9799   67.5309   41.2785 H         1 MTX         0.0530
     46 H13        19.6334   69.0524   44.5592 H         1 MTX         0.0530
     47 H14        18.2066   70.4225   43.0468 H         1 MTX         0.0636
     48 H15        16.7912   70.2521   41.3116 H         1 MTX         0.1864
     49 H16        17.2148   72.3439   39.1002 H         1 MTX         0.0726
     50 H17        14.6306   72.0386   38.7906 H         1 MTX         0.0323
     51 H18        14.7087   70.6833   39.9670 H         1 MTX         0.0323
     52 H19        14.7469   69.6395   37.6716 H         1 MTX         0.0432
     53 H20        16.4151   69.4919   38.3213 H         1 MTX         0.0432
@<TRIPOS>BOND
     1    1   12 ar 
     2    1    2 ar 
     3    2    4 ar 
     4    2    3 1  
     5    4    5 ar 
     6    5    7 ar 
     7    5    6 1  
     8    7   12 ar 
     9    7    8 ar 
    10    8    9 ar 
    11    9   13 1  
    12    9   10 ar 
    13   10   11 ar 
    14   11   12 ar 
    15   13   14 1  
    16   14   19 1  
    17   14   15 1  
    18   19   20 ar 
    19   19   18 ar 
    20   18   17 ar 
    21   17   16 ar 
    22   16   22 1  
    23   16   21 ar 
    24   21   20 ar 
    25   22   24 am 
    26   22   23 2  
    27   24   25 1  
    28   25   29 1  
    29   25   26 1  
    30   26   28 ar 
    31   26   27 ar 
    32   29   30 1  
    33   30   31 1  
    34   31   33 ar 
    35   31   32 ar 
    36    3   34 1  
    37    3   35 1  
    38    6   36 1  
    39    6   37 1  
    40   10   38 1  
    41   13   39 1  
    42   13   40 1  
    43   15   41 1  
    44   15   42 1  
    45   15   43 1  
    46   17   44 1  
    47   18   45 1  
    48   20   46 1  
    49   21   47 1  
    50   24   48 1  
    51   25   49 1  
    52   29   50 1  
    53   29   51 1  
    54   30   52 1  
    55   30   53 1  
@<TRIPOS>SUBSTRUCTURE
     1 MTX         1

