### 
### Created by X-TOOL on Mon Sep 10 21:12:47 2018
### 

@<TRIPOS>MOLECULE
1di8_ligand
   37    39     1     0     0
SMALL
GAST_HUCK


@<TRIPOS>ATOM
      1 N1         -9.2640   52.3090   13.3720 N.ar      1 DTQ        -0.2606
      2 C2        -10.2040   52.9720   12.5990 C.ar      1 DTQ         0.0529
      3 N3        -10.8280   52.3530   11.5200 N.ar      1 DTQ        -0.3051
      4 C4        -10.5050   51.0150   11.1310 C.ar      1 DTQ         0.0267
      5 C5         -9.4320   50.2410   11.9370 C.ar      1 DTQ         0.0395
      6 C6         -8.8630   50.9420   13.1320 C.ar      1 DTQ         0.1507
      7 C7        -11.1780   50.3770    9.9930 C.ar      1 DTQ        -0.0167
      8 C8        -10.8540   48.9910    9.5930 C.ar      1 DTQ         0.1323
      9 C9         -9.7510   48.2530   10.3090 C.ar      1 DTQ         0.1320
     10 C10        -9.0520   48.8980   11.4690 C.ar      1 DTQ        -0.0171
     11 N12        -7.9420   50.3180   14.0110 N.pl3     1 DTQ        -0.2510
     12 C14        -7.2290   50.6820   15.1650 C.ar      1 DTQ         0.0587
     13 C15        -6.3650   49.6150   15.7210 C.ar      1 DTQ        -0.0098
     14 C16        -5.5720   49.8430   16.9480 C.ar      1 DTQ         0.0787
     15 C17        -5.5700   51.1620   17.5920 C.ar      1 DTQ        -0.0443
     16 C18        -6.4190   52.2450   17.0620 C.ar      1 DTQ        -0.0792
     17 C19        -7.2620   52.0030   15.8780 C.ar      1 DTQ        -0.0481
     18 O21        -4.8340   48.8240   17.5090 O.3       1 DTQ        -0.3359
     19 O26       -11.5470   48.2780    8.5820 O.3       1 DTQ        -0.3161
     20 C27       -12.3960   48.8920    7.6050 C.3       1 DTQ         0.0601
     21 O31        -9.4630   46.9300    9.8550 O.3       1 DTQ        -0.3198
     22 C32        -8.4820   46.1170   10.5080 C.3       1 DTQ         0.0583
     23 H1        -10.4593   53.9974   12.8407 H         1 DTQ         0.1018
     24 H2        -11.9251   50.9314    9.4366 H         1 DTQ         0.0496
     25 H3         -8.2527   48.3656   11.9717 H         1 DTQ         0.0547
     26 H4         -7.7449   49.3466   13.7308 H         1 DTQ         0.2211
     27 H5         -6.3134   48.6542   15.2217 H         1 DTQ         0.0460
     28 H6         -4.9435   51.3403   18.4585 H         1 DTQ         0.0453
     29 H7         -6.4229   53.2168   17.5423 H         1 DTQ         0.0562
     30 H8         -7.9149   52.7893   15.5168 H         1 DTQ         0.0452
     31 H9         -4.3913   49.1456   18.2856 H         1 DTQ         0.2478
     32 H10       -12.8094   48.1188    6.9407 H         1 DTQ         0.0579
     33 H11       -11.8120   49.6110    7.0117 H         1 DTQ         0.0579
     34 H12       -13.2185   49.4175    8.1123 H         1 DTQ         0.0579
     35 H13        -8.4178   45.1424   10.0020 H         1 DTQ         0.0575
     36 H14        -8.7710   45.9663   11.5586 H         1 DTQ         0.0575
     37 H15        -7.5034   46.6175   10.4650 H         1 DTQ         0.0575
@<TRIPOS>BOND
     1    1    6 ar 
     2    1    2 ar 
     3    2    3 ar 
     4    3    4 ar 
     5    4    7 ar 
     6    4    5 ar 
     7    5   10 ar 
     8    5    6 ar 
     9    6   11 1  
    10   11   12 1  
    11   12   17 ar 
    12   12   13 ar 
    13   13   14 ar 
    14   14   18 1  
    15   14   15 ar 
    16   15   16 ar 
    17   16   17 ar 
    18   10    9 ar 
    19    9   21 1  
    20    9    8 ar 
    21    8   19 1  
    22    8    7 ar 
    23   19   20 1  
    24   21   22 1  
    25    2   23 1  
    26    7   24 1  
    27   10   25 1  
    28   11   26 1  
    29   13   27 1  
    30   15   28 1  
    31   16   29 1  
    32   17   30 1  
    33   18   31 1  
    34   20   32 1  
    35   20   33 1  
    36   20   34 1  
    37   22   35 1  
    38   22   36 1  
    39   22   37 1  
@<TRIPOS>SUBSTRUCTURE
     1 DTQ         1

