### 
### Created by X-TOOL on Mon Sep 10 21:12:47 2018
### 

@<TRIPOS>MOLECULE
1di9_ligand
   40    42     1     0     0
SMALL
GAST_HUCK


@<TRIPOS>ATOM
      1 N1         43.0150   32.0510   32.3060 N.ar      1 MSQ        -0.2606
      2 C2         43.5280   33.3560   32.3740 C.ar      1 MSQ         0.0529
      3 N3         44.6160   33.7610   31.5820 N.ar      1 MSQ        -0.3051
      4 C4         45.3250   32.8150   30.7600 C.ar      1 MSQ         0.0267
      5 C5         44.8050   31.3540   30.6580 C.ar      1 MSQ         0.0395
      6 C6         43.6190   31.0220   31.4970 C.ar      1 MSQ         0.1508
      7 C7         46.5880   33.1820   30.0880 C.ar      1 MSQ        -0.0167
      8 C8         47.4330   32.1490   29.4040 C.ar      1 MSQ         0.1323
      9 C9         46.8980   30.7430   29.2390 C.ar      1 MSQ         0.1319
     10 C10        45.5660   30.3730   29.8290 C.ar      1 MSQ        -0.0171
     11 N12        43.0870   29.7090   31.5300 N.pl3     1 MSQ        -0.2501
     12 C14        41.8510   29.2210   31.9100 C.ar      1 MSQ         0.0616
     13 C15        40.6150   29.7090   31.2620 C.ar      1 MSQ        -0.0258
     14 C16        39.3000   29.4010   31.8370 C.ar      1 MSQ         0.0061
     15 C17        39.1800   28.4200   32.9280 C.ar      1 MSQ        -0.0608
     16 C18        40.4100   27.8220   33.5040 C.ar      1 MSQ        -0.0765
     17 C19        41.7550   28.2320   33.0070 C.ar      1 MSQ        -0.0439
     18 S21        37.8780   30.2090   31.2290 S.3       1 MSQ        -0.1079
     19 C22        38.3800   31.9360   30.9080 C.3       1 MSQ        -0.0048
     20 O26        48.7700   32.3890   28.9470 O.3       1 MSQ        -0.3161
     21 C27        49.3270   33.6180   28.8460 C.3       1 MSQ         0.0601
     22 O31        47.7520   29.8330   28.5470 O.3       1 MSQ        -0.3198
     23 C32        47.3320   28.5320   28.0930 C.3       1 MSQ         0.0583
     24 H1         43.0741   34.0682   33.0536 H         1 MSQ         0.1018
     25 H2         46.9101   34.2170   30.0892 H         1 MSQ         0.0496
     26 H3         45.1547   29.3860   29.6511 H         1 MSQ         0.0547
     27 H4         43.7441   28.9827   31.2113 H         1 MSQ         0.2212
     28 H5         40.6804   30.2990   30.3550 H         1 MSQ         0.0486
     29 H6         38.2042   28.1376   33.3064 H         1 MSQ         0.0474
     30 H7         40.3302   27.0817   34.2918 H         1 MSQ         0.0572
     31 H8         42.6527   27.8102   33.4445 H         1 MSQ         0.0486
     32 H9         37.5201   32.5016   30.5198 H         1 MSQ         0.0366
     33 H10        39.1927   31.9499   30.1669 H         1 MSQ         0.0366
     34 H11        38.7293   32.3963   31.8440 H         1 MSQ         0.0366
     35 H12        50.3571   33.5240   28.4718 H         1 MSQ         0.0579
     36 H13        49.3388   34.0977   29.8358 H         1 MSQ         0.0579
     37 H14        48.7380   34.2313   28.1482 H         1 MSQ         0.0579
     38 H15        48.1722   28.0300   27.5909 H         1 MSQ         0.0575
     39 H16        46.4959   28.6423   27.3868 H         1 MSQ         0.0575
     40 H17        47.0073   27.9301   28.9546 H         1 MSQ         0.0575
@<TRIPOS>BOND
     1    1    2 ar 
     2    1    6 ar 
     3    2    3 ar 
     4    3    4 ar 
     5    4    5 ar 
     6    4    7 ar 
     7    5    6 ar 
     8    5   10 ar 
     9    6   11 1  
    10    7    8 ar 
    11    8    9 ar 
    12    8   20 1  
    13    9   10 ar 
    14    9   22 1  
    15   11   12 1  
    16   12   13 ar 
    17   12   17 ar 
    18   13   14 ar 
    19   14   15 ar 
    20   14   18 1  
    21   15   16 ar 
    22   16   17 ar 
    23   18   19 1  
    24   20   21 1  
    25   22   23 1  
    26    2   24 1  
    27    7   25 1  
    28   10   26 1  
    29   11   27 1  
    30   13   28 1  
    31   15   29 1  
    32   16   30 1  
    33   17   31 1  
    34   19   32 1  
    35   19   33 1  
    36   19   34 1  
    37   21   35 1  
    38   21   36 1  
    39   21   37 1  
    40   23   38 1  
    41   23   39 1  
    42   23   40 1  
@<TRIPOS>SUBSTRUCTURE
     1 MSQ         1

