### 
### Created by X-TOOL on Mon Sep 10 21:12:45 2018
### 

@<TRIPOS>MOLECULE
1dif_ligand
  116   119     1     0     0
SMALL
GAST_HUCK


@<TRIPOS>ATOM
      1 C1          3.3710    3.2440   10.6920 C.2       1 A85         0.2640
      2 O2          3.1580    3.9230   11.6780 O.2       1 A85        -0.4004
      3 N3          3.9360    3.7880    9.5880 N.am      1 A85        -0.2488
      4 C4          4.3560    3.0410    8.4100 C.3       1 A85         0.0254
      5 C5          4.2080    5.1970    9.5570 C.3       1 A85         0.0828
      6 C6          5.5530    5.5010   10.1640 C.ar      1 A85         0.0502
      7 C7          5.6990    5.5620   11.5750 C.ar      1 A85        -0.0304
      8 N8          6.5630    5.7500    9.2950 N.ar      1 A85        -0.2961
      9 C9          6.9460    5.9050   12.1100 C.ar      1 A85        -0.0488
     10 C10         7.7480    6.1020    9.8440 C.ar      1 A85         0.0028
     11 C11         7.9940    6.1900   11.2340 C.ar      1 A85        -0.0410
     12 N21         3.0420    1.9380   10.6590 N.am      1 A85        -0.2514
     13 C22         2.5260    1.2550   11.8400 C.3       1 A85         0.1335
     14 C23         3.6010    0.3240   12.3920 C.2       1 A85         0.2022
     15 O24         3.6530   -0.8760   12.1430 O.2       1 A85        -0.3945
     16 C25         1.2120    0.5400   11.5360 C.3       1 A85        -0.0065
     17 C26         0.6900   -0.1890   12.7810 C.3       1 A85        -0.0585
     18 C27         0.1270    1.5020   11.0100 C.3       1 A85        -0.0585
     19 N37         4.4710    0.9440   13.1890 N.am      1 A85        -0.2741
     20 C38         5.4170    0.2040   14.0260 C.3       1 A85         0.1199
     21 C39         6.7580    0.9060   14.0100 C.3       1 A85         0.0098
     22 C40         7.1910    0.9950   12.6000 C.ar      1 A85        -0.0406
     23 C41         6.9620    2.1660   11.8770 C.ar      1 A85        -0.0603
     24 C42         7.3180    2.2260   10.5290 C.ar      1 A85        -0.0686
     25 C43         7.8910    1.1110    9.9160 C.ar      1 A85        -0.0687
     26 C44         8.1260   -0.0590   10.6460 C.ar      1 A85        -0.0686
     27 C45         7.7790   -0.1170   11.9860 C.ar      1 A85        -0.0603
     28 C46         4.8310    0.0730   15.4350 C.3       1 A85         0.3274
     29 F1          4.9900    1.2280   16.1180 F         1 A85        -0.1970
     30 F2          3.4910   -0.0550   15.3950 F         1 A85        -0.1970
     31 C49         5.3510   -1.0750   16.3120 C.3       1 A85         0.2579
     32 O47         6.7280   -1.1480   16.1330 O.3       1 A85        -0.3584
     33 O48         5.1400   -0.7540   17.6490 O.3       1 A85        -0.3584
     34 N50         5.6720   -3.4510   16.4150 N.am      1 A85        -0.2746
     35 C51         4.7250   -2.4420   15.9740 C.3       1 A85         0.1109
     36 C52         3.3380   -2.7440   16.5810 C.3       1 A85         0.0092
     37 C53         2.9690   -4.1640   16.2730 C.ar      1 A85        -0.0407
     38 C54         2.5230   -4.5260   14.9940 C.ar      1 A85        -0.0603
     39 C55         2.2460   -5.8690   14.6830 C.ar      1 A85        -0.0686
     40 C56         2.4260   -6.8580   15.6460 C.ar      1 A85        -0.0687
     41 C57         2.8700   -6.4950   16.9160 C.ar      1 A85        -0.0686
     42 C58         3.1350   -5.1620   17.2340 C.ar      1 A85        -0.0603
     43 N81         7.0860   -6.1630   16.6480 N.am      1 A85        -0.2514
     44 C82         7.6010   -4.8630   16.2970 C.3       1 A85         0.1335
     45 C83         6.5080   -4.0710   15.5860 C.2       1 A85         0.2022
     46 O84         6.4240   -3.9600   14.3810 O.2       1 A85        -0.3945
     47 C85         8.9080   -4.9760   15.5210 C.3       1 A85        -0.0065
     48 C86         9.8120   -5.9170   16.3290 C.3       1 A85        -0.0585
     49 C87         9.5580   -3.5930   15.2780 C.3       1 A85        -0.0585
     50 C97         6.8600   -6.5570   17.9310 C.2       1 A85         0.2640
     51 O98         7.1850   -5.8670   18.8910 O.2       1 A85        -0.4004
     52 N99         6.2940   -7.7700   18.1310 N.am      1 A85        -0.2488
     53 C2          5.8690   -8.6300   17.0160 C.3       1 A85         0.0254
     54 C3          6.0610   -8.2570   19.4870 C.3       1 A85         0.0828
     55 C8          4.6680   -7.8930   19.9620 C.ar      1 A85         0.0502
     56 C12         4.4290   -6.6260   20.5360 C.ar      1 A85        -0.0304
     57 N10         3.6960   -8.8200   19.8070 N.ar      1 A85        -0.2961
     58 C13         3.1300   -6.3160   20.9580 C.ar      1 A85        -0.0488
     59 C14         2.4620   -8.5000   20.2030 C.ar      1 A85         0.0028
     60 C15         2.1280   -7.2740   20.7830 C.ar      1 A85        -0.0410
     61 H1          4.7806    3.7339    7.6686 H         1 A85         0.0485
     62 H2          3.4878    2.5248    7.9744 H         1 A85         0.0485
     63 H3          5.1168    2.3004    8.6974 H         1 A85         0.0485
     64 H4          3.4290    5.7263   10.1254 H         1 A85         0.0713
     65 H5          4.1984    5.5423    8.5127 H         1 A85         0.0713
     66 H6          4.8596    5.3468   12.2263 H         1 A85         0.0652
     67 H7          7.0946    5.9484   13.1829 H         1 A85         0.0719
     68 H8          8.5664    6.3328    9.1716 H         1 A85         0.0803
     69 H9          8.9713    6.4715   11.6090 H         1 A85         0.0652
     70 H10         3.1539    1.4262    9.8072 H         1 A85         0.1877
     71 H11         2.3150    2.0139   12.6078 H         1 A85         0.0799
     72 H12         1.4103   -0.2084   10.7546 H         1 A85         0.0342
     73 H13        -0.2557   -0.6962   12.5393 H         1 A85         0.0234
     74 H14         0.5198    0.5390   13.5878 H         1 A85         0.0234
     75 H15         1.4315   -0.9326   13.1084 H         1 A85         0.0234
     76 H16         0.5017    2.0244   10.1174 H         1 A85         0.0234
     77 H17        -0.1194    2.2382   11.7893 H         1 A85         0.0234
     78 H18        -0.7750    0.9295   10.7481 H         1 A85         0.0234
     79 H19         4.4777    1.9436   13.2160 H         1 A85         0.1859
     80 H20         5.5513   -0.8057   13.6108 H         1 A85         0.0640
     81 H21         7.4914    0.3299   14.5932 H         1 A85         0.0450
     82 H22         6.6600    1.9146   14.4379 H         1 A85         0.0450
     83 H23         6.5099    3.0248   12.3598 H         1 A85         0.0557
     84 H24         7.1503    3.1340    9.9611 H         1 A85         0.0599
     85 H25         8.1561    1.1518    8.8657 H         1 A85         0.0559
     86 H26         8.5785   -0.9182   10.1643 H         1 A85         0.0599
     87 H27         7.9622   -1.0201   12.5568 H         1 A85         0.0557
     88 H28         7.1188   -0.3087   16.3459 H         1 A85         0.2130
     89 H29         5.5517    0.0801   17.8420 H         1 A85         0.2130
     90 H30         5.6969   -3.6906   17.3856 H         1 A85         0.1858
     91 H31         4.6192   -2.4989   14.8806 H         1 A85         0.0634
     92 H32         2.5893   -2.0658   16.1457 H         1 A85         0.0450
     93 H33         3.3732   -2.6003   17.6710 H         1 A85         0.0450
     94 H34         2.3903   -3.7620   14.2365 H         1 A85         0.0557
     95 H35         1.8923   -6.1343   13.6933 H         1 A85         0.0599
     96 H36         2.2235   -7.8967   15.4111 H         1 A85         0.0559
     97 H37         3.0120   -7.2609   17.6698 H         1 A85         0.0599
     98 H38         3.4710   -4.9011   18.2311 H         1 A85         0.0557
     99 H39         6.8845   -6.8083   15.9111 H         1 A85         0.1877
    100 H40         7.8328   -4.3297   17.2307 H         1 A85         0.0799
    101 H41         8.7053   -5.4305   14.5400 H         1 A85         0.0342
    102 H42        10.7751   -6.0347   15.8108 H         1 A85         0.0234
    103 H43         9.3256   -6.8988   16.4263 H         1 A85         0.0234
    104 H44         9.9832   -5.4919   17.3290 H         1 A85         0.0234
    105 H45         8.8699   -2.9615   14.6969 H         1 A85         0.0234
    106 H46        10.4970   -3.7221   14.7198 H         1 A85         0.0234
    107 H47         9.7691   -3.1121   16.2445 H         1 A85         0.0234
    108 H48         5.4392   -9.5610   17.4142 H         1 A85         0.0485
    109 H49         6.7378   -8.8679   16.3846 H         1 A85         0.0485
    110 H50         5.1121   -8.1043   16.4153 H         1 A85         0.0485
    111 H51         6.8014   -7.8056   20.1638 H         1 A85         0.0713
    112 H52         6.1712   -9.3514   19.5003 H         1 A85         0.0713
    113 H53         5.2336   -5.9082   20.6479 H         1 A85         0.0652
    114 H54         2.9073   -5.3560   21.4095 H         1 A85         0.0719
    115 H55         1.6749   -9.2328   20.0668 H         1 A85         0.0803
    116 H56         1.1093   -7.0693   21.0919 H         1 A85         0.0652
@<TRIPOS>BOND
     1    1    2 2  
     2    1    3 am 
     3   12    1 am 
     4    3    4 1  
     5    3    5 1  
     6    5    6 1  
     7    6    7 ar 
     8    6    8 ar 
     9    7    9 ar 
    10    8   10 ar 
    11    9   11 ar 
    12   10   11 ar 
    13   13   12 1  
    14   14   13 1  
    15   13   16 1  
    16   14   15 2  
    17   19   14 am 
    18   16   17 1  
    19   16   18 1  
    20   20   19 1  
    21   20   21 1  
    22   28   20 1  
    23   21   22 1  
    24   22   23 ar 
    25   22   27 ar 
    26   23   24 ar 
    27   24   25 ar 
    28   26   25 ar 
    29   27   26 ar 
    30   28   29 1  
    31   28   30 1  
    32   31   28 1  
    33   31   32 1  
    34   31   33 1  
    35   35   31 1  
    36   35   36 1  
    37   36   37 1  
    38   37   38 ar 
    39   37   42 ar 
    40   38   39 ar 
    41   39   40 ar 
    42   41   40 ar 
    43   42   41 ar 
    44   44   43 1  
    45   43   50 am 
    46   45   44 1  
    47   44   47 1  
    48   45   46 2  
    49   47   48 1  
    50   47   49 1  
    51   50   51 2  
    52   50   52 am 
    53   52   53 1  
    54   52   54 1  
    55   54   55 1  
    56   55   56 ar 
    57   55   57 ar 
    58   56   58 ar 
    59   57   59 ar 
    60   58   60 ar 
    61   59   60 ar 
    62   34   45 am 
    63   35   34 1  
    64    4   61 1  
    65    4   62 1  
    66    4   63 1  
    67    5   64 1  
    68    5   65 1  
    69    7   66 1  
    70    9   67 1  
    71   10   68 1  
    72   11   69 1  
    73   12   70 1  
    74   13   71 1  
    75   16   72 1  
    76   17   73 1  
    77   17   74 1  
    78   17   75 1  
    79   18   76 1  
    80   18   77 1  
    81   18   78 1  
    82   19   79 1  
    83   20   80 1  
    84   21   81 1  
    85   21   82 1  
    86   23   83 1  
    87   24   84 1  
    88   25   85 1  
    89   26   86 1  
    90   27   87 1  
    91   32   88 1  
    92   33   89 1  
    93   34   90 1  
    94   35   91 1  
    95   36   92 1  
    96   36   93 1  
    97   38   94 1  
    98   39   95 1  
    99   40   96 1  
   100   41   97 1  
   101   42   98 1  
   102   43   99 1  
   103   44  100 1  
   104   47  101 1  
   105   48  102 1  
   106   48  103 1  
   107   48  104 1  
   108   49  105 1  
   109   49  106 1  
   110   49  107 1  
   111   53  108 1  
   112   53  109 1  
   113   53  110 1  
   114   54  111 1  
   115   54  112 1  
   116   56  113 1  
   117   58  114 1  
   118   59  115 1  
   119   60  116 1  
@<TRIPOS>SUBSTRUCTURE
     1 A85         1

