### 
### Created by X-TOOL on Mon Sep 10 21:12:45 2018
### 

@<TRIPOS>MOLECULE
1dis_ligand
   54    55     1     0     0
SMALL
GAST_HUCK


@<TRIPOS>ATOM
      1 N1         -4.5080   31.2890   21.0300 N.ar      1 BDM        -0.2820
      2 C2         -4.4730   30.0400   21.4670 C.ar      1 BDM         0.1639
      3 N2         -5.6070   29.5150   21.9000 N.pl3     1 BDM        -0.3097
      4 N3         -3.4020   29.2780   21.5780 N.ar      1 BDM        -0.2485
      5 C4         -2.2240   29.8070   21.2690 C.ar      1 BDM         0.1164
      6 N4         -1.1440   29.0450   21.4230 N.pl3     1 BDM        -0.3198
      7 C5         -2.1270   31.1620   20.8330 C.ar      1 BDM         0.0238
      8 C6         -3.3520   31.8580   20.7010 C.ar      1 BDM         0.0020
      9 C7         -0.7980   31.9000   20.6480 C.3       1 BDM         0.0118
     10 C8         -0.7870   33.4030   20.8140 C.ar      1 BDM        -0.0486
     11 C9         -1.2490   34.2080   21.8610 C.ar      1 BDM        -0.0389
     12 C10        -1.0620   35.6010   21.8120 C.ar      1 BDM         0.0863
     13 O10        -1.4120   36.5100   22.7860 O.3       1 BDM        -0.3203
     14 C11        -0.4520   36.1620   20.7000 C.ar      1 BDM         0.0600
     15 BR11       -0.3200   38.0710   20.5040 Br        1 BDM        -0.0720
     16 C12         0.0870   35.3500   19.7160 C.ar      1 BDM         0.0859
     17 O12         0.8040   35.9080   18.6860 O.3       1 BDM        -0.3235
     18 C13        -0.0910   33.9750   19.7780 C.ar      1 BDM        -0.0389
     19 C14         2.2090   35.7000   18.8280 C.3       1 BDM         0.0599
     20 C15        -2.4040   36.3510   23.8110 C.3       1 BDM         0.0710
     21 C16        -2.8090   37.7880   24.1940 C.3       1 BDM        -0.0232
     22 C17        -3.5080   37.9930   25.5490 C.3       1 BDM        -0.0361
     23 C18        -3.7540   39.4970   25.8430 C.3       1 BDM         0.0134
     24 C19        -5.1780   39.8790   25.3960 C.3       1 BDM        -0.0270
     25 C20        -5.3820   39.7020   23.8790 C.3       1 BDM         0.0019
     26 C21        -3.4930   39.9280   27.3040 C.2       1 BDM         0.0380
     27 O27        -3.2780   41.1390   27.5350 O.co2     1 BDM        -0.5687
     28 O28        -3.4890   39.0750   28.2180 O.co2     1 BDM        -0.5687
     29 C22        -6.7620   40.1370   23.3630 C.2       1 BDM         0.0349
     30 O30        -7.4450   39.3130   22.7160 O.co2     1 BDM        -0.5690
     31 O31        -7.1600   41.3030   23.5810 O.co2     1 BDM        -0.5690
     32 H1         -6.4808   30.0573   21.8422 H         1 BDM         0.1804
     33 H2         -5.6164   28.5638   22.2950 H         1 BDM         0.1804
     34 H3         -0.2124   29.4198   21.1939 H         1 BDM         0.1790
     35 H4         -1.2397   28.0804   21.7713 H         1 BDM         0.1790
     36 H5         -3.3480   32.8745   20.3245 H         1 BDM         0.0777
     37 H6         -0.4424   31.6816   19.6303 H         1 BDM         0.0560
     38 H7         -0.0899   31.4857   21.3807 H         1 BDM         0.0560
     39 H8         -1.7510   33.7580   22.7098 H         1 BDM         0.0399
     40 H9          0.3243   33.3454   18.9994 H         1 BDM         0.0399
     41 H10         2.7358   36.1642   17.9812 H         1 BDM         0.0579
     42 H11         2.4201   34.6206   18.8439 H         1 BDM         0.0579
     43 H12         2.5539   36.1550   19.7682 H         1 BDM         0.0579
     44 H13        -1.9829   35.8228   24.6791 H         1 BDM         0.0615
     45 H14        -3.2712   35.7933   23.4277 H         1 BDM         0.0615
     46 H15        -3.4900   38.1574   23.4131 H         1 BDM         0.0292
     47 H16        -1.8934   38.3975   24.2004 H         1 BDM         0.0292
     48 H17        -2.8751   37.5727   26.3444 H         1 BDM         0.0286
     49 H18        -4.4752   37.4692   25.5347 H         1 BDM         0.0286
     50 H19        -3.0466   40.0633   25.2194 H         1 BDM         0.0467
     51 H20        -5.3601   40.9320   25.6569 H         1 BDM         0.0303
     52 H21        -5.8988   39.2397   25.9268 H         1 BDM         0.0303
     53 H22        -5.2452   38.6378   23.6365 H         1 BDM         0.0432
     54 H23        -4.6179   40.2979   23.3584 H         1 BDM         0.0432
@<TRIPOS>BOND
     1    1    2 ar 
     2    8    1 ar 
     3    3   32 1  
     4    2    3 1  
     5    4    2 ar 
     6    3   33 1  
     7    6   34 1  
     8    5    4 ar 
     9    5    6 1  
    10    7    5 ar 
    11    6   35 1  
    12    8   36 1  
    13    7    8 ar 
    14    9    7 1  
    15    9   37 1  
    16   10    9 1  
    17    9   38 1  
    18   11   39 1  
    19   10   11 ar 
    20   10   18 ar 
    21   11   12 ar 
    22   18   40 1  
    23   12   13 1  
    24   12   14 ar 
    25   13   20 1  
    26   14   15 1  
    27   14   16 ar 
    28   16   17 1  
    29   16   18 ar 
    30   17   19 1  
    31   19   41 1  
    32   19   42 1  
    33   19   43 1  
    34   20   44 1  
    35   20   21 1  
    36   20   45 1  
    37   21   46 1  
    38   21   22 1  
    39   21   47 1  
    40   22   48 1  
    41   22   23 1  
    42   22   49 1  
    43   23   50 1  
    44   23   24 1  
    45   23   26 1  
    46   24   51 1  
    47   24   25 1  
    48   24   52 1  
    49   25   53 1  
    50   25   29 1  
    51   25   54 1  
    52   26   27 ar 
    53   26   28 ar 
    54   29   30 ar 
    55   29   31 ar 
@<TRIPOS>SUBSTRUCTURE
     1 BDM         1

