### 
### Created by X-TOOL on Mon Sep 10 21:12:47 2018
### 

@<TRIPOS>MOLECULE
1dm2_ligand
   29    31     1     0     0
SMALL
GAST_HUCK


@<TRIPOS>ATOM
      1 BR1        23.1200   26.8710   28.1360 Br        1 HMD        -0.0249
      2 O1         25.1840   31.3200   30.2860 O.2       1 HMD        -0.3956
      3 O2         30.5370   29.9590   25.4670 O.2       1 HMD        -0.3089
      4 N1         24.5420   29.1570   28.7920 N.pl3     1 HMD        -0.2791
      5 N2         26.7440   32.0690   28.7860 N.am      1 HMD        -0.2880
      6 N3         29.8580   28.1070   24.2840 N.2       1 HMD        -0.2693
      7 N4         27.9500   27.6500   25.3760 N.2       1 HMD        -0.2249
      8 N5         28.5480   26.2710   23.6020 N.pl3     1 HMD        -0.2956
      9 C1         24.5650   28.0270   28.0820 C.2       1 HMD         0.0932
     10 C2         25.7290   27.9080   27.3810 C.2       1 HMD        -0.0544
     11 C3         26.4900   29.0720   27.6720 C.2       1 HMD        -0.0114
     12 C4         25.6920   29.8330   28.5810 C.2       1 HMD         0.1295
     13 C5         25.8600   31.1210   29.2680 C.2       1 HMD         0.2122
     14 C6         27.6150   31.9880   27.6010 C.3       1 HMD         0.0346
     15 C7         28.5210   30.7700   27.6000 C.3       1 HMD        -0.0037
     16 C8         27.8380   29.5180   27.0570 C.3       1 HMD         0.0608
     17 C9         28.4320   28.8050   26.0100 C.2       1 HMD         0.1336
     18 C10        29.7250   29.0460   25.2510 C.2       1 HMD         0.2461
     19 C11        28.7890   27.3080   24.3810 C.2       1 HMD         0.1677
     20 H1         23.7713   29.4640   29.4025 H         1 HMD         0.2316
     21 H2         26.7990   32.9192   29.3096 H         1 HMD         0.1834
     22 H3         29.2060   26.0300   22.8471 H         1 HMD         0.1916
     23 H4         27.7018   25.7024   23.7486 H         1 HMD         0.1916
     24 H5         26.0174   27.0852   26.7286 H         1 HMD         0.0340
     25 H6         28.2437   32.8900   27.5682 H         1 HMD         0.0522
     26 H7         26.9800   31.9507   26.7036 H         1 HMD         0.0522
     27 H8         28.8440   30.5728   28.6328 H         1 HMD         0.0344
     28 H9         29.4003   30.9879   26.9760 H         1 HMD         0.0344
     29 H10        28.3784   28.8964   27.7861 H         1 HMD         0.0727
@<TRIPOS>BOND
     1    1    9 1  
     2    9    4 1  
     3    9   10 2  
     4   10   11 1  
     5   11   16 1  
     6   11   12 2  
     7   12    4 1  
     8   12   13 1  
     9   13    2 2  
    10   13    5 am 
    11    5   14 1  
    12   14   15 1  
    13   15   16 1  
    14   16   17 1  
    15   17    7 2  
    16   17   18 1  
    17   18    3 2  
    18   18    6 1  
    19    6   19 2  
    20   19    7 1  
    21   19    8 1  
    22    4   20 1  
    23    5   21 1  
    24    8   22 1  
    25    8   23 1  
    26   10   24 1  
    27   14   25 1  
    28   14   26 1  
    29   15   27 1  
    30   15   28 1  
    31   16   29 1  
@<TRIPOS>SUBSTRUCTURE
     1 HMD         1

