### 
### Created by X-TOOL on Mon Sep 10 21:12:46 2018
### 

@<TRIPOS>MOLECULE
1dmp_ligand
   76    80     1     0     0
SMALL
GAST_HUCK


@<TRIPOS>ATOM
      1 C1         -8.8900   15.3220   27.7390 C.2       1 DMQ         0.2671
      2 O1         -8.4080   14.2130   27.6200 O.2       1 DMQ        -0.4002
      3 N2         -8.6090   16.1690   26.7400 N.am      1 DMQ        -0.2406
      4 C2         -8.0330   15.5860   25.4850 C.3       1 DMQ         0.0655
      5 C3         -8.6780   17.6490   26.9140 C.3       1 DMQ         0.0853
      6 C4        -10.0180   18.2720   27.1610 C.3       1 DMQ         0.1081
      7 O4         -9.7860   19.6250   26.9240 O.3       1 DMQ        -0.3867
      8 C5        -10.5910   18.0230   28.5350 C.3       1 DMQ         0.1081
      9 O5        -11.8230   18.6470   28.5540 O.3       1 DMQ        -0.3867
     10 C6        -10.8300   16.5590   28.8550 C.3       1 DMQ         0.0853
     11 N7         -9.6360   15.6470   28.8450 N.am      1 DMQ        -0.2406
     12 C7         -9.4130   14.8750   30.0960 C.3       1 DMQ         0.0655
     13 C20        -8.7170   16.0040   24.2210 C.ar      1 DMQ        -0.0330
     14 C21       -10.1160   15.9180   24.1240 C.ar      1 DMQ        -0.0717
     15 C22       -10.8140   16.3270   22.9750 C.ar      1 DMQ        -0.0801
     16 C23       -10.0790   16.8490   21.9070 C.ar      1 DMQ        -0.0516
     17 C28        -8.6690   16.9590   21.9960 C.ar      1 DMQ         0.0282
     18 N29        -7.9810   17.6690   20.9750 N.pl3     1 DMQ        -0.3383
     19 C29        -7.9820   16.5160   23.1460 C.ar      1 DMQ        -0.0420
     20 C31        -7.5250   18.1310   27.8140 C.3       1 DMQ         0.0067
     21 C32        -6.2440   18.1380   26.9920 C.ar      1 DMQ        -0.0408
     22 C33        -5.2230   17.1850   27.2320 C.ar      1 DMQ        -0.0603
     23 C34        -4.0590   17.1780   26.4540 C.ar      1 DMQ        -0.0686
     24 C35        -3.9210   18.1180   25.4200 C.ar      1 DMQ        -0.0687
     25 C36        -4.9270   19.0750   25.1520 C.ar      1 DMQ        -0.0686
     26 C37        -6.0910   19.0880   25.9470 C.ar      1 DMQ        -0.0603
     27 C61       -12.0200   15.8570   28.1040 C.3       1 DMQ         0.0067
     28 C62       -12.5410   14.5960   28.7910 C.ar      1 DMQ        -0.0408
     29 C63       -13.3710   14.7000   29.9260 C.ar      1 DMQ        -0.0603
     30 C64       -13.7780   13.5480   30.6210 C.ar      1 DMQ        -0.0686
     31 C65       -13.3570   12.2800   30.1720 C.ar      1 DMQ        -0.0687
     32 C66       -12.5360   12.1470   29.0280 C.ar      1 DMQ        -0.0686
     33 C67       -12.1320   13.3120   28.3390 C.ar      1 DMQ        -0.0603
     34 C70        -9.5100   15.5830   31.4300 C.ar      1 DMQ        -0.0330
     35 C71       -10.4550   15.1340   32.3800 C.ar      1 DMQ        -0.0420
     36 C72       -10.4860   15.6970   33.6690 C.ar      1 DMQ         0.0282
     37 N79       -11.4110   15.2210   34.6490 N.pl3     1 DMQ        -0.3383
     38 C77        -9.5810   16.7250   34.0020 C.ar      1 DMQ        -0.0516
     39 C78        -8.6410   17.2010   33.0480 C.ar      1 DMQ        -0.0801
     40 C79        -8.6070   16.6220   31.7630 C.ar      1 DMQ        -0.0717
     41 H1         -8.0930   14.4901   25.5590 H         1 DMQ         0.0681
     42 H2         -6.9784   15.8919   25.4194 H         1 DMQ         0.0681
     43 H3         -8.4173   18.0379   25.9186 H         1 DMQ         0.0607
     44 H4        -10.7392   17.8836   26.4268 H         1 DMQ         0.0645
     45 H5         -9.1691   19.9565   27.5658 H         1 DMQ         0.2100
     46 H6         -9.9214   18.4545   29.2936 H         1 DMQ         0.0645
     47 H7        -11.7124   19.5698   28.3570 H         1 DMQ         0.2100
     48 H8        -11.1455   16.5851   29.9084 H         1 DMQ         0.0607
     49 H9         -8.4019   14.4465   30.0329 H         1 DMQ         0.0681
     50 H10       -10.1551   14.0632   30.1088 H         1 DMQ         0.0681
     51 H11       -10.6759   15.5228   24.9639 H         1 DMQ         0.0447
     52 H12       -11.8930   16.2400   22.9185 H         1 DMQ         0.0566
     53 H13       -10.5897   17.1711   21.0067 H         1 DMQ         0.0459
     54 H14        -6.9562   17.7642   21.0149 H         1 DMQ         0.1718
     55 H15        -8.5072   18.0883   20.1951 H         1 DMQ         0.1718
     56 H16        -6.9006   16.5715   23.1960 H         1 DMQ         0.0451
     57 H17        -7.4129   17.4501   28.6706 H         1 DMQ         0.0449
     58 H18        -7.7380   19.1468   28.1784 H         1 DMQ         0.0449
     59 H19        -5.3442   16.4554   28.0245 H         1 DMQ         0.0557
     60 H20        -3.2740   16.4559   26.6475 H         1 DMQ         0.0599
     61 H21        -3.0227   18.1099   24.8133 H         1 DMQ         0.0559
     62 H22        -4.8047   19.7892   24.3458 H         1 DMQ         0.0599
     63 H23        -6.8675   19.8212   25.7614 H         1 DMQ         0.0557
     64 H24       -11.6770   15.5830   27.0954 H         1 DMQ         0.0449
     65 H25       -12.8498   16.5749   28.0267 H         1 DMQ         0.0449
     66 H26       -13.6979   15.6762   30.2654 H         1 DMQ         0.0557
     67 H27       -14.4114   13.6342   31.4964 H         1 DMQ         0.0599
     68 H28       -13.6673   11.3928   30.7120 H         1 DMQ         0.0559
     69 H29       -12.2221   11.1675   28.6857 H         1 DMQ         0.0599
     70 H30       -11.5052   13.2262   27.4588 H         1 DMQ         0.0557
     71 H31       -11.1584   14.3531   32.1146 H         1 DMQ         0.0451
     72 H32       -11.4256   15.6400   35.5898 H         1 DMQ         0.1718
     73 H33       -12.0631   14.4590   34.4145 H         1 DMQ         0.1718
     74 H34        -9.6021   17.1571   34.9960 H         1 DMQ         0.0459
     75 H35        -7.9569   18.0014   33.3059 H         1 DMQ         0.0566
     76 H36        -7.8896   16.9721   31.0297 H         1 DMQ         0.0447
@<TRIPOS>BOND
     1    1   11 am 
     2    1    3 am 
     3    1    2 2  
     4    3    5 1  
     5    3    4 1  
     6    4   13 1  
     7   13   19 ar 
     8   13   14 ar 
     9   14   15 ar 
    10   15   16 ar 
    11   16   17 ar 
    12   17   19 ar 
    13   17   18 1  
    14    5   20 1  
    15    5    6 1  
    16    6    8 1  
    17    6    7 1  
    18    8   10 1  
    19    8    9 1  
    20   10   27 1  
    21   10   11 1  
    22   11   12 1  
    23   12   34 1  
    24   34   40 ar 
    25   34   35 ar 
    26   35   36 ar 
    27   36   38 ar 
    28   36   37 1  
    29   38   39 ar 
    30   39   40 ar 
    31   27   28 1  
    32   28   33 ar 
    33   28   29 ar 
    34   29   30 ar 
    35   30   31 ar 
    36   31   32 ar 
    37   32   33 ar 
    38   20   21 1  
    39   21   26 ar 
    40   21   22 ar 
    41   22   23 ar 
    42   23   24 ar 
    43   24   25 ar 
    44   25   26 ar 
    45    4   41 1  
    46    4   42 1  
    47    5   43 1  
    48    6   44 1  
    49    7   45 1  
    50    8   46 1  
    51    9   47 1  
    52   10   48 1  
    53   12   49 1  
    54   12   50 1  
    55   14   51 1  
    56   15   52 1  
    57   16   53 1  
    58   18   54 1  
    59   18   55 1  
    60   19   56 1  
    61   20   57 1  
    62   20   58 1  
    63   22   59 1  
    64   23   60 1  
    65   24   61 1  
    66   25   62 1  
    67   26   63 1  
    68   27   64 1  
    69   27   65 1  
    70   29   66 1  
    71   30   67 1  
    72   31   68 1  
    73   32   69 1  
    74   33   70 1  
    75   35   71 1  
    76   37   72 1  
    77   37   73 1  
    78   38   74 1  
    79   39   75 1  
    80   40   76 1  
@<TRIPOS>SUBSTRUCTURE
     1 DMQ         1

