### 
### Created by X-TOOL on Mon Sep 10 21:12:47 2018
### 

@<TRIPOS>MOLECULE
1doj_ligand
   80    83     1     0     0
SMALL
GAST_HUCK


@<TRIPOS>ATOM
      1 C           9.2080   25.9000   -9.8540 C.3       1 1Z0        -0.0427
      2 N           9.8060   25.3970   -8.5820 N.4       1 1Z0         0.2454
      3 CA         10.9020   26.3160   -8.1460 C.3       1 1Z0         0.0761
      4 C          11.4970   25.8040   -6.8370 C.2       1 1Z0         0.2313
      5 O          11.8400   24.6260   -6.7230 O.2       1 1Z0        -0.3903
      6 CB         11.9810   26.3700   -9.2310 C.3       1 1Z0         0.0416
      7 CG         12.9500   27.5190   -9.0370 C.ar      1 1Z0        -0.0353
      8 CD1        12.4810   28.8260   -9.0200 C.ar      1 1Z0        -0.0600
      9 CD2        14.3040   27.2650   -8.8800 C.ar      1 1Z0        -0.0600
     10 CE1        13.3790   29.8780   -8.8450 C.ar      1 1Z0        -0.0686
     11 CE2        15.1900   28.3250   -8.7050 C.ar      1 1Z0        -0.0686
     12 CZ         14.7260   29.6280   -8.6880 C.ar      1 1Z0        -0.0687
     13 N          11.6410   26.6880   -5.8340 N.am      1 1Z0        -0.2470
     14 CA         12.1980   26.2640   -4.5430 C.3       1 1Z0         0.1338
     15 C          11.3190   25.1920   -3.9100 C.2       1 1Z0         0.2024
     16 O          10.0970   25.2250   -4.0440 O.2       1 1Z0        -0.3945
     17 CB         12.2130   27.5460   -3.7080 C.3       1 1Z0        -0.0104
     18 CG         12.1150   28.6570   -4.6980 C.3       1 1Z0        -0.0281
     19 CD         11.3150   28.1250   -5.8470 C.3       1 1Z0         0.0371
     20 N          11.9440   24.2430   -3.2240 N.am      1 1Z0        -0.2764
     21 CA         11.2070   23.1720   -2.5740 C.3       1 1Z0         0.0864
     22 CB         11.7770   21.8170   -2.9930 C.3       1 1Z0        -0.0213
     23 CG         11.3090   21.4110   -4.3760 C.3       1 1Z0        -0.0174
     24 CD         12.1300   20.2820   -4.9720 C.3       1 1Z0         0.0626
     25 NE         11.4600   19.7380   -6.1480 N.pl3     1 1Z0        -0.2723
     26 CZ         11.7870   18.5980   -6.7450 C.cat     1 1Z0         0.2882
     27 NH1        12.7890   17.8600   -6.2820 N.pl3     1 1Z0        -0.2849
     28 NH2        11.1010   18.1940   -7.8010 N.pl3     1 1Z0        -0.2849
     29 N5         11.0870   25.6900   -0.1830 N.2       1 1Z0        -0.3037
     30 S5          8.7900   24.6430   -0.6100 S.3       1 1Z0         0.0122
     31 C5         10.4860   24.5400   -0.6150 C.2       1 1Z0         0.1300
     32 C61        10.2150   26.6720    0.1570 C.ar      1 1Z0         0.0249
     33 C62         8.8440   26.2860   -0.0110 C.ar      1 1Z0         0.0564
     34 C63         7.8240   27.1730    0.2940 C.ar      1 1Z0        -0.0361
     35 C64         8.1250   28.4420    0.7640 C.ar      1 1Z0        -0.0005
     36 C65         9.4520   28.8430    0.9360 C.ar      1 1Z0        -0.0591
     37 C66        10.4900   27.9550    0.6300 C.ar      1 1Z0        -0.0555
     38 C1          7.0990   29.2950    1.1230 C.2       1 1Z0         0.0575
     39 O1          7.3430   30.2350    1.9090 O.co2     1 1Z0        -0.5624
     40 O2          5.9420   29.0480    0.7230 O.co2     1 1Z0        -0.5624
     41 O          10.5460   22.2290   -0.4730 O.3       1 1Z0        -0.3667
     42 C          11.2510   23.3080   -1.0710 C.3       1 1Z0         0.1523
     43 H1          8.4021   25.2228  -10.1732 H         1 1Z0         0.0777
     44 H2          9.9834   25.9399  -10.6331 H         1 1Z0         0.0777
     45 H3          8.7978   26.9079   -9.6930 H         1 1Z0         0.0777
     46 H4         10.1815   24.4734   -8.7299 H         1 1Z0         0.2034
     47 H5          9.0951   25.3604   -7.8684 H         1 1Z0         0.2034
     48 H6         10.4936   27.3253   -7.9895 H         1 1Z0         0.1123
     49 H7         11.4909   26.4846  -10.2091 H         1 1Z0         0.0507
     50 H8         12.5461   25.4264   -9.2124 H         1 1Z0         0.0507
     51 H9         11.4228   29.0271   -9.1421 H         1 1Z0         0.0557
     52 H10        14.6715   26.2453   -8.8934 H         1 1Z0         0.0557
     53 H11        13.0159   30.8993   -8.8323 H         1 1Z0         0.0599
     54 H12        16.2488   28.1280   -8.5815 H         1 1Z0         0.0599
     55 H13        15.4192   30.4502   -8.5517 H         1 1Z0         0.0559
     56 H14        13.2180   25.8714   -4.6671 H         1 1Z0         0.0802
     57 H15        13.1483   27.6219   -3.1341 H         1 1Z0         0.0313
     58 H16        11.3566   27.5673   -3.0180 H         1 1Z0         0.0313
     59 H17        13.1181   28.9546   -5.0375 H         1 1Z0         0.0287
     60 H18        11.6076   29.5237   -4.2493 H         1 1Z0         0.0287
     61 H19        10.2387   28.2886   -5.6898 H         1 1Z0         0.0524
     62 H20        11.6225   28.5925   -6.7940 H         1 1Z0         0.0524
     63 H21        12.9412   24.2653   -3.1530 H         1 1Z0         0.1858
     64 H22        10.1569   23.2274   -2.8969 H         1 1Z0         0.0617
     65 H23        11.4516   21.0550   -2.2695 H         1 1Z0         0.0292
     66 H24        12.8753   21.8776   -2.9927 H         1 1Z0         0.0292
     67 H25        11.3799   22.2846   -5.0406 H         1 1Z0         0.0300
     68 H26        10.2606   21.0848   -4.3096 H         1 1Z0         0.0300
     69 H27        12.2514   19.4861   -4.2224 H         1 1Z0         0.0689
     70 H28        13.1190   20.6661   -5.2625 H         1 1Z0         0.0689
     71 H29        10.6767   20.2771   -6.5438 H         1 1Z0         0.2642
     72 H30        13.0372   16.9767   -6.7501 H         1 1Z0         0.2615
     73 H31        13.3181   18.1708   -5.4547 H         1 1Z0         0.2615
     74 H32        10.3237   18.7666   -8.1601 H         1 1Z0         0.2615
     75 H33        11.3440   17.3068   -8.2644 H         1 1Z0         0.2615
     76 H34         6.7900   26.8744    0.1650 H         1 1Z0         0.0600
     77 H35         9.6769   29.8372    1.3047 H         1 1Z0         0.0584
     78 H36        11.5194   28.2681    0.7622 H         1 1Z0         0.0564
     79 H37        10.9635   21.4092   -0.7101 H         1 1Z0         0.2148
     80 H38        12.2957   23.3421   -0.7282 H         1 1Z0         0.0903
@<TRIPOS>BOND
     1    2    1 1  
     2    3    2 1  
     3    4    3 1  
     4    3    6 1  
     5    4    5 2  
     6   13    4 am 
     7    6    7 1  
     8    7    8 ar 
     9    7    9 ar 
    10    8   10 ar 
    11    9   11 ar 
    12   10   12 ar 
    13   11   12 ar 
    14   14   13 1  
    15   13   19 1  
    16   15   14 1  
    17   14   17 1  
    18   15   16 2  
    19   20   15 am 
    20   17   18 1  
    21   18   19 1  
    22   21   20 1  
    23   21   22 1  
    24   42   21 1  
    25   22   23 1  
    26   23   24 1  
    27   24   25 1  
    28   25   26 ar 
    29   26   27 ar 
    30   26   28 ar 
    31   31   29 2  
    32   29   32 1  
    33   31   30 1  
    34   30   33 1  
    35   31   42 1  
    36   32   33 ar 
    37   32   37 ar 
    38   33   34 ar 
    39   34   35 ar 
    40   35   36 ar 
    41   35   38 1  
    42   36   37 ar 
    43   38   39 ar 
    44   38   40 ar 
    45   42   41 1  
    46    1   43 1  
    47    1   44 1  
    48    1   45 1  
    49    2   46 1  
    50    2   47 1  
    51    3   48 1  
    52    6   49 1  
    53    6   50 1  
    54    8   51 1  
    55    9   52 1  
    56   10   53 1  
    57   11   54 1  
    58   12   55 1  
    59   14   56 1  
    60   17   57 1  
    61   17   58 1  
    62   18   59 1  
    63   18   60 1  
    64   19   61 1  
    65   19   62 1  
    66   20   63 1  
    67   21   64 1  
    68   22   65 1  
    69   22   66 1  
    70   23   67 1  
    71   23   68 1  
    72   24   69 1  
    73   24   70 1  
    74   25   71 1  
    75   27   72 1  
    76   27   73 1  
    77   28   74 1  
    78   28   75 1  
    79   34   76 1  
    80   36   77 1  
    81   37   78 1  
    82   41   79 1  
    83   42   80 1  
@<TRIPOS>SUBSTRUCTURE
     1 1Z0         1

