### 
### Created by X-TOOL on Mon Sep 10 21:12:45 2018
### 

@<TRIPOS>MOLECULE
1drj_ligand
   20    20     1     0     0
SMALL
GAST_HUCK


@<TRIPOS>ATOM
      1 C1         50.1230   34.0140   43.2800 C.3       1 RIP         0.1850
      2 C2         49.4070   33.4660   44.5170 C.3       1 RIP         0.1339
      3 C3         49.0130   34.5990   45.4310 C.3       1 RIP         0.1137
      4 C4         50.2290   35.4740   45.7600 C.3       1 RIP         0.1069
      5 C5         50.9290   35.9190   44.4860 C.3       1 RIP         0.0792
      6 O1         50.5470   32.9690   42.4360 O.3       1 RIP        -0.3649
      7 O2         48.2460   32.7680   44.1460 O.3       1 RIP        -0.3841
      8 O3         48.0230   35.3570   44.7770 O.3       1 RIP        -0.3864
      9 O4         49.8410   36.6150   46.4860 O.3       1 RIP        -0.3869
     10 O5         51.2510   34.7940   43.6660 O.3       1 RIP        -0.3462
     11 H1         49.4212   34.6537   42.7248 H         1 RIP         0.0935
     12 H2         50.0857   32.7848   45.0512 H         1 RIP         0.0671
     13 H3         48.6037   34.1900   46.3665 H         1 RIP         0.0647
     14 H4         50.9315   34.8849   46.3678 H         1 RIP         0.0643
     15 H5         51.8554   36.4501   44.7499 H         1 RIP         0.0587
     16 H6         50.2654   36.5949   43.9268 H         1 RIP         0.0587
     17 H7         51.1694   32.4214   42.9000 H         1 RIP         0.2126
     18 H8         48.4813   32.0430   43.5790 H         1 RIP         0.2101
     19 H9         47.7582   36.0787   45.3351 H         1 RIP         0.2100
     20 H10        49.4272   36.3468   47.2979 H         1 RIP         0.2100
@<TRIPOS>BOND
     1    1   10 1  
     2    1    6 1  
     3    1    2 1  
     4    2    7 1  
     5    2    3 1  
     6    3    8 1  
     7    3    4 1  
     8    4    9 1  
     9    4    5 1  
    10    5   10 1  
    11    1   11 1  
    12    2   12 1  
    13    3   13 1  
    14    4   14 1  
    15    5   15 1  
    16    5   16 1  
    17    6   17 1  
    18    7   18 1  
    19    8   19 1  
    20    9   20 1  
@<TRIPOS>SUBSTRUCTURE
     1 RIP         1

