### 
### Created by X-TOOL on Mon Sep 10 21:12:45 2018
### 

@<TRIPOS>MOLECULE
1drk_ligand
   20    20     1     0     0
SMALL
GAST_HUCK


@<TRIPOS>ATOM
      1 C1         49.7320   33.6320   43.6180 C.3       1 RIP         0.1850
      2 C2         49.0360   33.0990   44.8940 C.3       1 RIP         0.1339
      3 C3         48.7010   34.2690   45.8230 C.3       1 RIP         0.1137
      4 C4         49.9470   35.1320   46.0490 C.3       1 RIP         0.1069
      5 C5         50.5770   35.5630   44.7470 C.3       1 RIP         0.0792
      6 O1         50.1480   32.5760   42.7790 O.3       1 RIP        -0.3649
      7 O2         47.8400   32.3830   44.5820 O.3       1 RIP        -0.3841
      8 O3         47.6530   35.0530   45.2730 O.3       1 RIP        -0.3864
      9 O4         49.6110   36.2780   46.7640 O.3       1 RIP        -0.3869
     10 O5         50.8780   34.4250   43.9670 O.3       1 RIP        -0.3462
     11 H1         49.0163   34.2604   43.0677 H         1 RIP         0.0935
     12 H2         49.7276   32.4178   45.4113 H         1 RIP         0.0671
     13 H3         48.3690   33.8670   46.7916 H         1 RIP         0.0647
     14 H4         50.6793   34.5459   46.6236 H         1 RIP         0.0643
     15 H5         51.5027   36.1197   44.9548 H         1 RIP         0.0587
     16 H6         49.8764   36.2087   44.1973 H         1 RIP         0.0587
     17 H7         50.7835   32.0396   43.2383 H         1 RIP         0.2126
     18 H8         48.0513   31.6435   44.0244 H         1 RIP         0.2101
     19 H9         47.4568   35.7738   45.8598 H         1 RIP         0.2100
     20 H10        49.2462   36.0295   47.6052 H         1 RIP         0.2100
@<TRIPOS>BOND
     1    1   10 1  
     2    1    6 1  
     3    1    2 1  
     4    2    7 1  
     5    2    3 1  
     6    3    8 1  
     7    3    4 1  
     8    4    9 1  
     9    4    5 1  
    10    5   10 1  
    11    1   11 1  
    12    2   12 1  
    13    3   13 1  
    14    4   14 1  
    15    5   15 1  
    16    5   16 1  
    17    6   17 1  
    18    7   18 1  
    19    8   19 1  
    20    9   20 1  
@<TRIPOS>SUBSTRUCTURE
     1 RIP         1

