### 
### Created by X-TOOL on Mon Sep 10 21:12:45 2018
### 

@<TRIPOS>MOLECULE
1dth_ligand
   63    64     1     0     0
SMALL
GAST_HUCK


@<TRIPOS>ATOM
      1 C1          2.3740   20.6560   -1.5010 C.ar      1 BAT        -0.0687
      2 C2          1.4140   21.4250   -0.8440 C.ar      1 BAT        -0.0686
      3 C3          1.7120   22.7420   -0.4570 C.ar      1 BAT        -0.0601
      4 C4          2.9660   23.2830   -0.7290 C.ar      1 BAT        -0.0386
      5 C5          3.9240   22.5100   -1.3840 C.ar      1 BAT        -0.0601
      6 C6          3.6270   21.1950   -1.7730 C.ar      1 BAT        -0.0686
      7 C10         3.2990   24.6910   -0.2760 C.3       1 BAT         0.0214
      8 C13         4.0160   24.6010    1.0720 C.3       1 BAT         0.1402
      9 C14         4.7520   25.8210    1.6620 C.2       1 BAT         0.2035
     10 O15         5.3100   25.7360    2.7580 O.2       1 BAT        -0.3944
     11 N16         4.8310   26.9170    0.8930 N.am      1 BAT        -0.2880
     12 C17         5.5300   28.0650    1.4470 C.3       1 BAT         0.0196
     13 N18         3.0650   24.1100    2.0520 N.am      1 BAT        -0.2635
     14 C19         2.0360   24.8390    2.5270 C.2       1 BAT         0.1840
     15 O20         1.6630   25.8920    1.9890 O.2       1 BAT        -0.3965
     16 C21         1.1870   24.0170    3.5230 C.3       1 BAT         0.0694
     17 C22         0.3100   23.1220    2.5980 C.3       1 BAT        -0.0285
     18 C23        -0.9920   23.7080    1.9890 C.3       1 BAT        -0.0442
     19 C24        -2.0500   24.4930    2.7870 C.3       1 BAT        -0.0625
     20 C25        -1.6830   22.3680    1.6670 C.3       1 BAT        -0.0625
     21 C27         0.7920   24.7450    4.8560 C.3       1 BAT         0.0811
     22 C28         0.3100   23.6760    5.8560 C.3       1 BAT         0.0313
     23 S29         0.8630   23.8970    7.5670 S.3       1 BAT        -0.0833
     24 C30        -0.2370   22.9720    8.5430 C.2       1 BAT         0.0710
     25 S31        -0.3220   21.2450    8.4400 S.3       1 BAT        -0.0328
     26 C32        -1.5540   21.2200    9.6350 C.2       1 BAT        -0.0187
     27 C33        -1.9180   22.4830   10.1190 C.2       1 BAT        -0.0923
     28 C34        -1.1300   23.5310    9.4650 C.2       1 BAT        -0.0710
     29 C35        -0.2630   25.9070    4.8400 C.2       1 BAT         0.2054
     30 O36        -1.4080   25.7970    5.1360 O.2       1 BAT        -0.3965
     31 N37         0.3130   27.0680    4.4810 N.am      1 BAT        -0.1639
     32 O38        -0.0950   28.0490    4.4010 O.3       1 BAT        -0.2717
     33 H1          2.1440   19.6395   -1.7993 H         1 BAT         0.0559
     34 H2          0.4370   21.0061   -0.6318 H         1 BAT         0.0599
     35 H3          0.9647   23.3381    0.0541 H         1 BAT         0.0557
     36 H4          4.9025   22.9268   -1.5936 H         1 BAT         0.0557
     37 H5          4.3738   20.5994   -2.2853 H         1 BAT         0.0599
     38 H6          2.3739   25.2761   -0.1675 H         1 BAT         0.0474
     39 H7          3.9545   25.1750   -1.0150 H         1 BAT         0.0474
     40 H8          4.7913   23.8319    0.9397 H         1 BAT         0.0823
     41 H9          4.4268   26.9433   -0.0213 H         1 BAT         0.1848
     42 H10         5.5200   28.8877    0.7169 H         1 BAT         0.0484
     43 H11         6.5703   27.7873    1.6722 H         1 BAT         0.0484
     44 H12         5.0286   28.3887    2.3710 H         1 BAT         0.0484
     45 H13         3.1798   23.1775    2.3944 H         1 BAT         0.1884
     46 H14         1.8941   23.2795    3.9306 H         1 BAT         0.0566
     47 H15         0.0202   22.2389    3.1863 H         1 BAT         0.0296
     48 H16         0.9459   22.8096    1.7565 H         1 BAT         0.0296
     49 H17        -0.7375   24.2966    1.0953 H         1 BAT         0.0297
     50 H18        -2.8682   24.7923    2.1155 H         1 BAT         0.0232
     51 H19        -1.5881   25.3903    3.2246 H         1 BAT         0.0232
     52 H20        -2.4494   23.8571    3.5908 H         1 BAT         0.0232
     53 H21        -0.9963   21.7305    1.0908 H         1 BAT         0.0232
     54 H22        -2.5913   22.5565    1.0758 H         1 BAT         0.0232
     55 H23        -1.9544   21.8608    2.6046 H         1 BAT         0.0232
     56 H24         1.7212   25.1879    5.2439 H         1 BAT         0.0575
     57 H25         0.6730   22.6981    5.5069 H         1 BAT         0.0434
     58 H26        -0.7900   23.6813    5.8528 H         1 BAT         0.0434
     59 H27        -2.0145   20.2983    9.9877 H         1 BAT         0.0598
     60 H28        -2.6804   22.6612   10.8759 H         1 BAT         0.0371
     61 H29        -1.2257   24.5966    9.6679 H         1 BAT         0.0285
     62 H30         1.2839   26.9993    4.2514 H         1 BAT         0.2216
     63 H31        -0.4307   28.3211    5.2470 H         1 BAT         0.2490
@<TRIPOS>BOND
     1    1    6 ar 
     2    1    2 ar 
     3    2    3 ar 
     4    3    4 ar 
     5    4    7 1  
     6    4    5 ar 
     7    5    6 ar 
     8    7    8 1  
     9    8   13 1  
    10    8    9 1  
    11    9   11 am 
    12    9   10 2  
    13   11   12 1  
    14   13   14 am 
    15   14   16 1  
    16   14   15 2  
    17   16   21 1  
    18   16   17 1  
    19   17   18 1  
    20   18   20 1  
    21   18   19 1  
    22   21   29 1  
    23   21   22 1  
    24   22   23 1  
    25   23   24 1  
    26   24   28 2  
    27   24   25 1  
    28   25   26 1  
    29   26   27 2  
    30   27   28 1  
    31   29   31 am 
    32   29   30 2  
    33   31   32 1  
    34    1   33 1  
    35    2   34 1  
    36    3   35 1  
    37    5   36 1  
    38    6   37 1  
    39    7   38 1  
    40    7   39 1  
    41    8   40 1  
    42   11   41 1  
    43   12   42 1  
    44   12   43 1  
    45   12   44 1  
    46   13   45 1  
    47   16   46 1  
    48   17   47 1  
    49   17   48 1  
    50   18   49 1  
    51   19   50 1  
    52   19   51 1  
    53   19   52 1  
    54   20   53 1  
    55   20   54 1  
    56   20   55 1  
    57   21   56 1  
    58   22   57 1  
    59   22   58 1  
    60   26   59 1  
    61   27   60 1  
    62   28   61 1  
    63   31   62 1  
    64   32   63 1  
@<TRIPOS>SUBSTRUCTURE
     1 BAT         1

