### 
### Created by X-TOOL on Mon Sep 10 21:12:47 2018
### 

@<TRIPOS>MOLECULE
1dtq_ligand
   40    41     1     0     0
SMALL
GAST_HUCK


@<TRIPOS>ATOM
      1 C1          0.2380  -37.3790   19.0320 C.ar      1 FPT         0.1558
      2 N2          0.2770  -37.4010   20.4190 N.ar      1 FPT        -0.2684
      3 C3         -0.7440  -36.8670   21.1790 C.ar      1 FPT         0.0301
      4 C4         -1.8570  -36.2940   20.5200 C.ar      1 FPT         0.1060
      5 C5         -1.8760  -36.2550   19.1130 C.ar      1 FPT        -0.0217
      6 C6         -0.8430  -36.7850   18.3600 C.ar      1 FPT        -0.0004
      7 C7         -3.0160  -35.8050   21.2560 C.1       1 FPT         0.0937
      8 N7         -3.9720  -35.4400   21.8140 N.1       1 FPT        -0.3363
      9 N8          1.1040  -38.0740   18.2690 N.am      1 FPT        -0.2104
     10 C9          2.4030  -38.2360   18.3360 C.2       1 FPT         0.1710
     11 S9          3.4100  -38.2210   16.9450 S.2       1 FPT        -0.2897
     12 N10         2.8830  -38.3830   19.5530 N.am      1 FPT        -0.2749
     13 C11         2.9620  -39.6970   20.1960 C.3       1 FPT         0.0480
     14 C12         3.7810  -39.7290   21.5000 C.3       1 FPT         0.0160
     15 C13         3.7140  -38.4160   22.2530 C.ar      1 FPT         0.0525
     16 N14         4.7770  -37.5450   22.0930 N.ar      1 FPT        -0.3160
     17 C15         4.8590  -36.3330   22.7490 C.ar      1 FPT        -0.0122
     18 C16         3.8370  -35.9580   23.6240 C.ar      1 FPT        -0.0141
     19 C17         2.7420  -36.8290   23.8190 C.ar      1 FPT         0.1385
     20 C18         2.6500  -38.0690   23.1240 C.ar      1 FPT         0.1871
     21 O17         1.8120  -36.4960   24.8030 O.3       1 FPT        -0.3100
     22 CA          0.8440  -35.5180   24.4280 C.3       1 FPT         0.0696
     23 CB          0.0820  -35.0560   25.6660 C.3       1 FPT        -0.0369
     24 F18         1.5450  -38.8370   23.2280 F         1 FPT        -0.1870
     25 H1         -0.6939  -36.8863   22.2617 H         1 FPT         0.0888
     26 H2         -2.7196  -35.7991   18.6075 H         1 FPT         0.0783
     27 H3         -0.8675  -36.7428   17.2771 H         1 FPT         0.0628
     28 H4          0.6742  -38.5582   17.5069 H         1 FPT         0.2451
     29 H5          3.2019  -37.5769   20.0514 H         1 FPT         0.1984
     30 H6          3.4226  -40.3988   19.4852 H         1 FPT         0.0567
     31 H7          1.9384  -40.0275   20.4265 H         1 FPT         0.0567
     32 H8          4.8315  -39.9419   21.2529 H         1 FPT         0.0465
     33 H9          3.3871  -40.5276   22.1457 H         1 FPT         0.0465
     34 H10         5.7081  -35.6790   22.5866 H         1 FPT         0.0733
     35 H11         3.8835  -35.0098   24.1473 H         1 FPT         0.0570
     36 H12         0.1394  -35.9573   23.7065 H         1 FPT         0.0614
     37 H13         1.3515  -34.6575   23.9675 H         1 FPT         0.0614
     38 H14        -0.6646  -34.3017   25.3767 H         1 FPT         0.0256
     39 H15         0.7865  -34.6166   26.3875 H         1 FPT         0.0256
     40 H16        -0.4256  -35.9164   26.1265 H         1 FPT         0.0256
@<TRIPOS>BOND
     1    1    2 ar 
     2    1    6 ar 
     3    1    9 1  
     4    2    3 ar 
     5    3    4 ar 
     6    4    5 ar 
     7    4    7 1  
     8    5    6 ar 
     9    7    8 3  
    10    9   10 am 
    11   10   11 2  
    12   10   12 am 
    13   12   13 1  
    14   13   14 1  
    15   14   15 1  
    16   15   16 ar 
    17   15   20 ar 
    18   16   17 ar 
    19   17   18 ar 
    20   18   19 ar 
    21   19   20 ar 
    22   19   21 1  
    23   20   24 1  
    24   21   22 1  
    25   22   23 1  
    26    3   25 1  
    27    5   26 1  
    28    6   27 1  
    29    9   28 1  
    30   12   29 1  
    31   13   30 1  
    32   13   31 1  
    33   14   32 1  
    34   14   33 1  
    35   17   34 1  
    36   18   35 1  
    37   22   36 1  
    38   22   37 1  
    39   23   38 1  
    40   23   39 1  
    41   23   40 1  
@<TRIPOS>SUBSTRUCTURE
     1 FPT         1

