### 
### Created by X-TOOL on Mon Sep 10 21:12:47 2018
### 

@<TRIPOS>MOLECULE
1dtt_ligand
   39    40     1     0     0
SMALL
GAST_HUCK


@<TRIPOS>ATOM
      1 C1         -1.9070  -34.6890   21.8880 C.ar      1 FTC         0.1458
      2 N2         -1.8840  -34.8920   23.2680 N.ar      1 FTC        -0.2820
      3 C3         -2.8370  -34.3510   24.1270 C.ar      1 FTC         0.0081
      4 C4         -3.8600  -33.5890   23.5590 C.ar      1 FTC         0.0517
      5 C5         -3.8880  -33.3710   22.1780 C.ar      1 FTC        -0.0414
      6 C6         -2.9350  -33.9140   21.3300 C.ar      1 FTC        -0.0104
      7 CL7        -5.0920  -32.9420   24.5360 Cl        1 FTC        -0.0746
      8 N8         -1.0530  -35.2640   21.0040 N.am      1 FTC        -0.2159
      9 C9          0.0140  -36.0400   21.2010 C.2       1 FTC         0.1674
     10 S9          1.0970  -36.3310   19.8700 S.2       1 FTC        -0.2929
     11 N10         0.1530  -36.5920   22.4310 N.am      1 FTC        -0.2756
     12 C11         1.4790  -36.8940   23.0050 C.3       1 FTC         0.0479
     13 C12         1.3560  -37.1530   24.5380 C.3       1 FTC         0.0160
     14 C13         1.5140  -35.8510   25.3280 C.ar      1 FTC         0.0525
     15 N14         2.6560  -35.0920   25.1450 N.ar      1 FTC        -0.3160
     16 C15         2.8500  -33.8640   25.7430 C.ar      1 FTC        -0.0122
     17 C16         1.8560  -33.3500   26.5780 C.ar      1 FTC        -0.0141
     18 C17         0.6830  -34.0880   26.7940 C.ar      1 FTC         0.1385
     19 C18         0.4940  -35.3450   26.1650 C.ar      1 FTC         0.1871
     20 O17        -0.2550  -33.5690   27.6670 O.3       1 FTC        -0.3100
     21 CA         -1.0880  -32.5880   27.0670 C.3       1 FTC         0.0696
     22 CB         -2.1390  -32.1440   28.0580 C.3       1 FTC        -0.0369
     23 F18        -0.6420  -36.0320   26.3630 F         1 FTC        -0.1870
     24 H1         -2.7866  -34.5153   25.1973 H         1 FTC         0.0783
     25 H2         -4.6783  -32.7593   21.7580 H         1 FTC         0.0699
     26 H3         -2.9830  -33.7437   20.2605 H         1 FTC         0.0607
     27 H4         -1.2579  -35.0742   20.0438 H         1 FTC         0.2410
     28 H5         -0.6663  -36.8007   22.9650 H         1 FTC         0.1983
     29 H6          2.1520  -36.0410   22.8335 H         1 FTC         0.0567
     30 H7          1.8907  -37.7898   22.5171 H         1 FTC         0.0567
     31 H8          2.1404  -37.8593   24.8477 H         1 FTC         0.0465
     32 H9          0.3676  -37.5859   24.7517 H         1 FTC         0.0465
     33 H10         3.7622  -33.3055   25.5669 H         1 FTC         0.0733
     34 H11         1.9900  -32.3865   27.0564 H         1 FTC         0.0570
     35 H12        -1.5781  -33.0161   26.1801 H         1 FTC         0.0614
     36 H13        -0.4782  -31.7230   26.7673 H         1 FTC         0.0614
     37 H14        -2.7840  -31.3841   27.5926 H         1 FTC         0.0256
     38 H15        -1.6491  -31.7158   28.9449 H         1 FTC         0.0256
     39 H16        -2.7490  -33.0089   28.3577 H         1 FTC         0.0256
@<TRIPOS>BOND
     1    1    2 ar 
     2    1    6 ar 
     3    1    8 1  
     4    2    3 ar 
     5    3    4 ar 
     6    4    5 ar 
     7    4    7 1  
     8    5    6 ar 
     9    8    9 am 
    10    9   10 2  
    11    9   11 am 
    12   11   12 1  
    13   12   13 1  
    14   13   14 1  
    15   14   15 ar 
    16   14   19 ar 
    17   15   16 ar 
    18   16   17 ar 
    19   17   18 ar 
    20   18   19 ar 
    21   18   20 1  
    22   19   23 1  
    23   20   21 1  
    24   21   22 1  
    25    3   24 1  
    26    5   25 1  
    27    6   26 1  
    28    8   27 1  
    29   11   28 1  
    30   12   29 1  
    31   12   30 1  
    32   13   31 1  
    33   13   32 1  
    34   16   33 1  
    35   17   34 1  
    36   21   35 1  
    37   21   36 1  
    38   22   37 1  
    39   22   38 1  
    40   22   39 1  
@<TRIPOS>SUBSTRUCTURE
     1 FTC         1

