### 
### Created by X-TOOL on Mon Sep 10 21:12:45 2018
### 

@<TRIPOS>MOLECULE
1dwd_ligand
   69    72     1     0     0
SMALL
GAST_HUCK


@<TRIPOS>ATOM
      1 N1         33.4730   12.2860   22.0110 N.am      1 MID        -0.2712
      2 C2         33.6900   11.1160   21.1670 C.3       1 MID         0.0339
      3 C3         32.9400    9.9200   21.7710 C.3       1 MID        -0.0325
      4 C4         33.3310    9.7150   23.2650 C.3       1 MID        -0.0494
      5 C5         33.0510   10.9910   24.0860 C.3       1 MID        -0.0325
      6 C6         33.7560   12.1980   23.4560 C.3       1 MID         0.0339
      7 N7         31.5060   14.2480   23.1380 N.am      1 MID        -0.2625
      8 C8         32.7930   14.5390   22.4860 C.3       1 MID         0.1405
      9 C9         32.9780   13.4720   21.4620 C.2       1 MID         0.2062
     10 O10        32.7440   13.5950   20.2550 O.2       1 MID        -0.3941
     11 C11        32.7220   15.8910   21.7900 C.3       1 MID         0.0214
     12 C12        32.6760   16.9470   22.8070 C.ar      1 MID        -0.0386
     13 C13        33.8380   17.4680   23.3090 C.ar      1 MID        -0.0601
     14 C14        31.4630   17.3550   23.2950 C.ar      1 MID        -0.0601
     15 C15        33.7800   18.4850   24.2800 C.ar      1 MID        -0.0633
     16 C16        31.3820   18.3620   24.2600 C.ar      1 MID        -0.0633
     17 C17        32.5450   18.9280   24.7480 C.ar      1 MID         0.0188
     18 N18        29.9850   13.7390   26.3060 N.am      1 MID        -0.2285
     19 C19        30.0460   13.7400   24.8830 C.3       1 MID         0.1157
     20 C20        31.4080   14.0330   24.4730 C.2       1 MID         0.1970
     21 O21        32.3780   14.1170   25.2350 O.2       1 MID        -0.3951
     22 S22        29.3410   12.4380   27.0580 S.o2      1 MID         0.0702
     23 O23        28.3630   11.8390   26.1820 O.2       1 MID        -0.1502
     24 O24        29.0620   12.8090   28.4350 O.2       1 MID        -0.1502
     25 C25        30.5070   10.1480   26.3150 C.ar      1 MID        -0.0345
     26 C26        30.6400   11.2630   27.1350 C.ar      1 MID         0.1089
     27 C27        31.7270   11.4390   27.9370 C.ar      1 MID        -0.0274
     28 C28        32.7410   10.4530   27.9200 C.ar      1 MID        -0.0160
     29 C29        32.5820    9.2850   27.1330 C.ar      1 MID        -0.0178
     30 C30        31.4640    9.1710   26.3000 C.ar      1 MID        -0.0522
     31 C31        33.8930   10.5930   28.7020 C.ar      1 MID        -0.0540
     32 C32        34.8520    9.5850   28.6810 C.ar      1 MID        -0.0612
     33 C33        34.6900    8.4150   27.8780 C.ar      1 MID        -0.0612
     34 C34        33.5680    8.2670   27.1180 C.ar      1 MID        -0.0540
     35 C35        32.4750   19.9650   25.7860 C.cat     1 MID         0.2318
     36 N36        31.2960   20.4290   26.2370 N.pl3     1 MID        -0.2729
     37 N37        33.5310   20.7490   26.0440 N.pl3     1 MID        -0.2729
     38 H1         34.7655   10.8906   21.1180 H         1 MID         0.0522
     39 H2         33.3107   11.3161   20.1540 H         1 MID         0.0522
     40 H3         33.1944    9.0121   21.2045 H         1 MID         0.0285
     41 H4         31.8574   10.1028   21.7040 H         1 MID         0.0285
     42 H5         34.4025    9.4743   23.3274 H         1 MID         0.0267
     43 H6         32.7435    8.8830   23.6804 H         1 MID         0.0267
     44 H7         33.4212   10.8502   25.1122 H         1 MID         0.0285
     45 H8         31.9670   11.1762   24.1095 H         1 MID         0.0285
     46 H9         33.4030   13.1166   23.9475 H         1 MID         0.0522
     47 H10        34.8413   12.0970   23.6037 H         1 MID         0.0522
     48 H11        30.6779   14.2076   22.5788 H         1 MID         0.1885
     49 H12        33.6144   14.5306   23.2176 H         1 MID         0.0823
     50 H13        31.8166   15.9386   21.1671 H         1 MID         0.0474
     51 H14        33.6107   16.0272   21.1562 H         1 MID         0.0474
     52 H15        34.7963   17.0998   22.9610 H         1 MID         0.0557
     53 H16        30.5547   16.8909   22.9280 H         1 MID         0.0557
     54 H17        34.6947   18.9228   24.6630 H         1 MID         0.0599
     55 H18        30.4166   18.6962   24.6225 H         1 MID         0.0599
     56 H19        30.3283   14.5164   26.8331 H         1 MID         0.1702
     57 H20        29.3667   14.5079   24.4844 H         1 MID         0.0717
     58 H21        29.7488   12.7528   24.4995 H         1 MID         0.0717
     59 H22        29.6339   10.0519   25.6797 H         1 MID         0.0637
     60 H23        31.8127   12.3130   28.5725 H         1 MID         0.0643
     61 H24        31.3567    8.3130   25.6462 H         1 MID         0.0624
     62 H25        34.0364   11.4749   29.3159 H         1 MID         0.0624
     63 H26        35.7435    9.6902   29.2887 H         1 MID         0.0618
     64 H27        35.4560    7.6480   27.8729 H         1 MID         0.0618
     65 H28        33.4315    7.3807   26.5090 H         1 MID         0.0624
     66 H29        31.2736   21.1566   26.9657 H         1 MID         0.3180
     67 H30        30.4154   20.0567   25.8537 H         1 MID         0.3180
     68 H31        34.4710   20.4659   25.7323 H         1 MID         0.3180
     69 H32        33.4025   21.6346   26.5539 H         1 MID         0.3180
@<TRIPOS>BOND
     1    1    2 1  
     2    1    6 1  
     3    9    1 am 
     4    2    3 1  
     5    3    4 1  
     6    5    4 1  
     7    6    5 1  
     8    7    8 1  
     9   20    7 am 
    10    8    9 1  
    11    8   11 1  
    12    9   10 2  
    13   11   12 1  
    14   12   13 ar 
    15   12   14 ar 
    16   13   15 ar 
    17   14   16 ar 
    18   15   17 ar 
    19   16   17 ar 
    20   17   35 1  
    21   19   18 1  
    22   18   22 am 
    23   19   20 1  
    24   20   21 2  
    25   22   23 2  
    26   22   24 2  
    27   22   26 1  
    28   26   25 ar 
    29   25   30 ar 
    30   26   27 ar 
    31   27   28 ar 
    32   28   29 ar 
    33   28   31 ar 
    34   29   30 ar 
    35   29   34 ar 
    36   31   32 ar 
    37   32   33 ar 
    38   33   34 ar 
    39   35   36 ar 
    40   35   37 ar 
    41    2   38 1  
    42    2   39 1  
    43    3   40 1  
    44    3   41 1  
    45    4   42 1  
    46    4   43 1  
    47    5   44 1  
    48    5   45 1  
    49    6   46 1  
    50    6   47 1  
    51    7   48 1  
    52    8   49 1  
    53   11   50 1  
    54   11   51 1  
    55   13   52 1  
    56   14   53 1  
    57   15   54 1  
    58   16   55 1  
    59   18   56 1  
    60   19   57 1  
    61   19   58 1  
    62   25   59 1  
    63   27   60 1  
    64   30   61 1  
    65   31   62 1  
    66   32   63 1  
    67   33   64 1  
    68   34   65 1  
    69   36   66 1  
    70   36   67 1  
    71   37   68 1  
    72   37   69 1  
@<TRIPOS>SUBSTRUCTURE
     1 MID         1

