### 
### Created by X-TOOL on Mon Sep 10 21:12:47 2018
### 

@<TRIPOS>MOLECULE
1dx6_ligand
   43    46     1     0     0
SMALL
GAST_HUCK


@<TRIPOS>ATOM
      1 C1          2.4700   67.5340   63.2010 C.2       1 GNT        -0.1096
      2 C2          2.5980   67.9070   61.9410 C.2       1 GNT        -0.0102
      3 C3          3.9180   68.1530   61.2660 C.3       1 GNT         0.1204
      4 C4          5.1610   68.1640   62.2440 C.3       1 GNT         0.0132
      5 C41         5.0120   67.1520   63.4030 C.3       1 GNT         0.0474
      6 C42         3.6480   67.2060   64.1640 C.3       1 GNT        -0.0342
      7 O5          5.1710   65.7760   62.8850 O.3       1 GNT        -0.3207
      8 C6          4.5400   63.5580   63.7920 C.ar      1 GNT         0.1316
      9 C7          3.6820   62.9140   64.7140 C.ar      1 GNT        -0.0294
     10 C8          2.8010   63.6430   65.5070 C.ar      1 GNT        -0.0558
     11 C9          1.7460   65.7880   66.3260 C.3       1 GNT         0.0028
     12 N10         2.3820   66.8880   67.1060 N.4       1 GNT         0.2457
     13 C11         2.5160   68.1600   66.3430 C.3       1 GNT        -0.0448
     14 C12         3.7030   68.1500   65.3760 C.3       1 GNT        -0.0567
     15 C13         4.4440   64.9750   63.7330 C.ar      1 GNT         0.1256
     16 C14         3.5440   65.7100   64.5470 C.ar      1 GNT        -0.0540
     17 C15         2.7020   65.0540   65.4510 C.ar      1 GNT        -0.0085
     18 C16         5.4060   61.8070   62.3790 C.3       1 GNT         0.0557
     19 O17         5.6070   62.9560   63.1470 O.3       1 GNT        -0.3249
     20 O18         4.1130   67.1290   60.3230 O.3       1 GNT        -0.3629
     21 C19         1.6470   67.0900   68.4040 C.3       1 GNT        -0.0415
     22 H1          1.4596   67.4490   63.5982 H         1 GNT         0.0348
     23 H2          1.6909   68.0450   61.3545 H         1 GNT         0.1347
     24 H3          3.8713   69.1254   60.7539 H         1 GNT         0.0969
     25 H4          5.2668   69.1732   62.6685 H         1 GNT         0.0354
     26 H5          6.0642   67.9114   61.6692 H         1 GNT         0.0354
     27 H6          5.8133   67.3586   64.1277 H         1 GNT         0.0473
     28 H7          3.7113   61.8342   64.8044 H         1 GNT         0.0642
     29 H8          2.1618   63.1063   66.1987 H         1 GNT         0.0492
     30 H9          0.9562   66.2202   65.6940 H         1 GNT         0.1005
     31 H10         1.2999   65.0724   67.0323 H         1 GNT         0.1005
     32 H11         3.3168   66.5868   67.3328 H         1 GNT         0.2047
     33 H12         2.6516   68.9856   67.0572 H         1 GNT         0.0800
     34 H13         1.5939   68.3223   65.7657 H         1 GNT         0.0800
     35 H14         3.8149   69.1729   64.9872 H         1 GNT         0.0132
     36 H15         4.5957   67.8797   65.9591 H         1 GNT         0.0132
     37 H16         6.3649   61.4802   61.9503 H         1 GNT         0.0570
     38 H17         4.6977   62.0280   61.5670 H         1 GNT         0.0570
     39 H18         4.9973   61.0078   63.0148 H         1 GNT         0.0570
     40 H19         4.9115   67.2961   59.8363 H         1 GNT         0.2168
     41 H20         1.5699   66.1297   68.9349 H         1 GNT         0.0778
     42 H21         0.6382   67.4770   68.1978 H         1 GNT         0.0778
     43 H22         2.1958   67.8108   69.0279 H         1 GNT         0.0778
@<TRIPOS>BOND
     1    1    2 2  
     2    6    1 1  
     3    3    2 1  
     4    4    3 1  
     5    3   20 1  
     6    5    4 1  
     7    5    6 1  
     8    7    5 1  
     9    6   14 1  
    10    6   16 1  
    11   15    7 1  
    12    9    8 ar 
    13    8   15 ar 
    14    8   19 1  
    15   10    9 ar 
    16   17   10 ar 
    17   11   12 1  
    18   11   17 1  
    19   12   13 1  
    20   12   21 1  
    21   13   14 1  
    22   15   16 ar 
    23   16   17 ar 
    24   19   18 1  
    25    1   22 1  
    26    2   23 1  
    27    3   24 1  
    28    4   25 1  
    29    4   26 1  
    30    5   27 1  
    31    9   28 1  
    32   10   29 1  
    33   11   30 1  
    34   11   31 1  
    35   12   32 1  
    36   13   33 1  
    37   13   34 1  
    38   14   35 1  
    39   14   36 1  
    40   18   37 1  
    41   18   38 1  
    42   18   39 1  
    43   20   40 1  
    44   21   41 1  
    45   21   42 1  
    46   21   43 1  
@<TRIPOS>SUBSTRUCTURE
     1 GNT         1

