### 
### Created by X-TOOL on Mon Sep 10 21:12:47 2018
### 

@<TRIPOS>MOLECULE
1dy4_ligand
   39    41     1     0     0
SMALL
GAST_HUCK


@<TRIPOS>ATOM
      1 C1         24.3160   54.8910   90.5540 C.ar      1 SNP         0.1044
      2 C2         23.9770   54.1950   91.7520 C.ar      1 SNP        -0.0340
      3 C3         22.6480   53.7560   92.0320 C.ar      1 SNP        -0.0744
      4 C4         21.6110   54.0220   91.0850 C.ar      1 SNP        -0.0685
      5 C5         20.8780   54.9610   88.9690 C.ar      1 SNP        -0.0587
      6 C6         21.1500   55.6570   87.7500 C.ar      1 SNP        -0.0640
      7 C7         22.4810   56.0950   87.4710 C.ar      1 SNP        -0.0633
      8 C8         23.5190   55.8280   88.4210 C.ar      1 SNP        -0.0532
      9 C9         23.2560   55.1400   89.6330 C.ar      1 SNP         0.0178
     10 C10        21.9120   54.7070   89.8930 C.ar      1 SNP        -0.0261
     11 O1         25.5940   55.3310   90.2450 O.3       1 SNP        -0.3102
     12 C11        26.4520   55.8300   91.2610 C.3       1 SNP         0.1032
     13 C12        27.6980   56.4180   90.5970 C.3       1 SNP         0.1226
     14 O2         28.4170   55.3760   89.9660 O.3       1 SNP        -0.3838
     15 C13        27.3520   57.4830   89.5430 C.3       1 SNP        -0.0042
     16 N1         28.3890   58.4990   89.5320 N.4       1 SNP         0.2311
     17 C14        28.3430   59.3960   88.3940 C.3       1 SNP        -0.0222
     18 C15        29.2470   58.8190   87.2860 C.3       1 SNP        -0.0046
     19 C16        28.8230   60.8130   88.7670 C.3       1 SNP        -0.0046
     20 H1         24.7574   53.9920   92.4765 H         1 SNP         0.0499
     21 H2         22.4277   53.2270   92.9522 H         1 SNP         0.0581
     22 H3         20.5962   53.6972   91.2842 H         1 SNP         0.0493
     23 H4         19.8697   54.6263   89.1842 H         1 SNP         0.0599
     24 H5         20.3520   55.8510   87.0425 H         1 SNP         0.0614
     25 H6         22.7027   56.6234   86.5508 H         1 SNP         0.0591
     26 H7         24.5290   56.1594   88.2088 H         1 SNP         0.0631
     27 H8         26.7424   55.0119   91.9365 H         1 SNP         0.0646
     28 H9         25.9328   56.6121   91.8343 H         1 SNP         0.0646
     29 H10        28.3266   56.8793   91.3729 H         1 SNP         0.0675
     30 H11        29.1929   55.7343   89.5511 H         1 SNP         0.2101
     31 H12        26.3858   57.9463   89.7916 H         1 SNP         0.0840
     32 H13        27.2883   57.0118   88.5511 H         1 SNP         0.0840
     33 H14        29.2838   58.0350   89.5305 H         1 SNP         0.2017
     34 H15        28.2978   59.0505   90.3708 H         1 SNP         0.2017
     35 H16        27.3078   59.4577   88.0272 H         1 SNP         0.0850
     36 H17        28.9552   58.7792   86.2262 H         1 SNP         0.0322
     37 H18        30.0416   58.0823   87.4755 H         1 SNP         0.0322
     38 H19        29.4139   61.0343   89.6680 H         1 SNP         0.0322
     39 H20        28.3275   61.7312   88.4187 H         1 SNP         0.0322
@<TRIPOS>BOND
     1    2    1 ar 
     2    1    9 ar 
     3    1   11 1  
     4    3    2 ar 
     5    4    3 ar 
     6   10    4 ar 
     7    5    6 ar 
     8   10    5 ar 
     9    6    7 ar 
    10    7    8 ar 
    11    9    8 ar 
    12    9   10 ar 
    13   11   12 1  
    14   12   13 1  
    15   13   14 1  
    16   13   15 1  
    17   15   16 1  
    18   16   17 1  
    19   17   18 1  
    20   17   19 1  
    21   18   19 1  
    22    2   20 1  
    23    3   21 1  
    24    4   22 1  
    25    5   23 1  
    26    6   24 1  
    27    7   25 1  
    28    8   26 1  
    29   12   27 1  
    30   12   28 1  
    31   13   29 1  
    32   14   30 1  
    33   15   31 1  
    34   15   32 1  
    35   16   33 1  
    36   16   34 1  
    37   17   35 1  
    38   18   36 1  
    39   18   37 1  
    40   19   38 1  
    41   19   39 1  
@<TRIPOS>SUBSTRUCTURE
     1 SNP         1

