### 
### Created by X-TOOL on Mon Sep 10 21:12:48 2018
### 

@<TRIPOS>MOLECULE
1dzj_ligand
   31    31     1     0     0
SMALL
GAST_HUCK


@<TRIPOS>ATOM
      1 C1          2.9710   26.0680   12.4140 C.3       1 SES        -0.0652
      2 C2          2.5240   26.4140   10.9970 C.3       1 SES        -0.0547
      3 C3          1.1060   26.9660   11.0290 C.3       1 SES        -0.0480
      4 C4          0.1530   25.9620   11.6730 C.3       1 SES        -0.0319
      5 C11         0.1960   27.1630   15.5320 C.3       1 SES        -0.0639
      6 C12        -0.0080   25.7390   15.0230 C.3       1 SES        -0.0491
      7 C13        -1.4800   25.4930   14.6900 C.3       1 SES        -0.0220
      8 N21        -1.6270   27.6650   11.6020 N.2       1 SES        -0.3302
      9 C22        -2.7270   28.1160   12.2280 C.2       1 SES         0.1664
     10 N22        -3.3410   29.1710   11.7080 N.pl3     1 SES        -0.3032
     11 SE1        -3.4050   27.2700   13.8150 S.3       1 SES         0.0037
     12 C24        -1.9090   26.1760   13.4140 C.2       1 SES         0.0089
     13 C25        -1.0960   26.6040   12.2330 C.2       1 SES        -0.0308
     14 H1          3.9959   25.6694   12.3881 H         1 SES         0.0230
     15 H2          2.2940   25.3116   12.8377 H         1 SES         0.0230
     16 H3          2.9455   26.9735   13.0380 H         1 SES         0.0230
     17 H4          2.5501   25.5082   10.3735 H         1 SES         0.0264
     18 H5          3.2016   27.1701   10.5738 H         1 SES         0.0264
     19 H6          0.7744   27.1706   10.0003 H         1 SES         0.0280
     20 H7          1.0945   27.8996   11.6106 H         1 SES         0.0280
     21 H8          0.6821   25.4529   12.4920 H         1 SES         0.0362
     22 H9         -0.1435   25.2239   10.9132 H         1 SES         0.0362
     23 H10         1.2594   27.3200   15.7657 H         1 SES         0.0231
     24 H11        -0.4056   27.3176   16.4398 H         1 SES         0.0231
     25 H12        -0.1186   27.8779   14.7574 H         1 SES         0.0231
     26 H13         0.3107   25.0282   15.7996 H         1 SES         0.0280
     27 H14         0.5977   25.5884   14.1172 H         1 SES         0.0280
     28 H15        -2.0967   25.8735   15.5176 H         1 SES         0.0384
     29 H16        -1.6403   24.4102   14.5809 H         1 SES         0.0384
     30 H17        -2.9684   29.6161   10.8572 H         1 SES         0.1838
     31 H18        -4.1902   29.5449   12.1552 H         1 SES         0.1838
@<TRIPOS>BOND
     1    2    1 1  
     2    3    2 1  
     3    4    3 1  
     4   13    4 1  
     5    6    5 1  
     6    7    6 1  
     7   12    7 1  
     8    9    8 2  
     9    8   13 1  
    10    9   10 1  
    11   11    9 1  
    12   11   12 1  
    13   12   13 2  
    14    1   14 1  
    15    1   15 1  
    16    1   16 1  
    17    2   17 1  
    18    2   18 1  
    19    3   19 1  
    20    3   20 1  
    21    4   21 1  
    22    4   22 1  
    23    5   23 1  
    24    5   24 1  
    25    5   25 1  
    26    6   26 1  
    27    6   27 1  
    28    7   28 1  
    29    7   29 1  
    30   10   30 1  
    31   10   31 1  
@<TRIPOS>SUBSTRUCTURE
     1 SES         1

