### 
### Created by X-TOOL on Mon Sep 10 21:12:47 2018
### 

@<TRIPOS>MOLECULE
1dzk_ligand
   26    26     1     0     0
SMALL
GAST_HUCK


@<TRIPOS>ATOM
      1 N1         -0.0300   24.7570   10.5420 N.ar      1 PRZ        -0.2838
      2 C2         -0.4030   25.8580   11.2200 C.ar      1 PRZ         0.0890
      3 C3          0.5710   26.7340   11.7610 C.ar      1 PRZ         0.1984
      4 N4          1.9330   26.4290   11.6440 N.ar      1 PRZ        -0.2574
      5 C5          2.2990   25.1950   10.9970 C.ar      1 PRZ         0.0210
      6 C6          1.2920   24.3860   10.3500 C.ar      1 PRZ         0.0196
      7 C21        -1.9300   26.1020   11.5660 C.3       1 PRZ         0.0043
      8 C22        -2.1570   26.4380   13.1700 C.3       1 PRZ        -0.0350
      9 C23        -3.2530   27.1590   13.7540 C.3       1 PRZ        -0.0607
     10 C24        -1.1970   25.8720   14.2440 C.3       1 PRZ        -0.0607
     11 O31         0.1150   27.8030   12.1900 O.3       1 PRZ        -0.2980
     12 C31         0.9980   28.7750   12.7450 C.3       1 PRZ         0.0635
     13 H1          3.3338   24.8723   10.9956 H         1 PRZ         0.0821
     14 H2          1.5578   23.5285    9.7425 H         1 PRZ         0.0795
     15 H3         -2.5012   25.1979   11.3085 H         1 PRZ         0.0454
     16 H4         -2.2978   26.9503   10.9702 H         1 PRZ         0.0454
     17 H5         -1.5712   27.3620   13.0558 H         1 PRZ         0.0320
     18 H6         -3.1157   27.2151   14.8440 H         1 PRZ         0.0234
     19 H7         -4.1956   26.6383   13.5295 H         1 PRZ         0.0234
     20 H8         -3.2872   28.1759   13.3360 H         1 PRZ         0.0234
     21 H9         -0.3759   25.3296   13.7525 H         1 PRZ         0.0234
     22 H10        -1.7480   25.1846   14.9027 H         1 PRZ         0.0234
     23 H11        -0.7848   26.6995   14.8401 H         1 PRZ         0.0234
     24 H12         0.4196   29.6520   13.0710 H         1 PRZ         0.0584
     25 H13         1.7310   29.0814   11.9842 H         1 PRZ         0.0584
     26 H14         1.5246   28.3417   13.6081 H         1 PRZ         0.0584
@<TRIPOS>BOND
     1    1    6 ar 
     2    1    2 ar 
     3    2    7 1  
     4    2    3 ar 
     5    3   11 1  
     6    3    4 ar 
     7    4    5 ar 
     8    5    6 ar 
     9   11   12 1  
    10    7    8 1  
    11    8   10 1  
    12    8    9 1  
    13    5   13 1  
    14    6   14 1  
    15    7   15 1  
    16    7   16 1  
    17    8   17 1  
    18    9   18 1  
    19    9   19 1  
    20    9   20 1  
    21   10   21 1  
    22   10   22 1  
    23   10   23 1  
    24   12   24 1  
    25   12   25 1  
    26   12   26 1  
@<TRIPOS>SUBSTRUCTURE
     1 PRZ         1

