### 
### Created by X-TOOL on Mon Sep 10 21:12:48 2018
### 

@<TRIPOS>MOLECULE
1dzm_ligand
   28    29     1     0     0
SMALL
GAST_HUCK


@<TRIPOS>ATOM
      1 C8          0.5310   26.5430   13.7460 C.3       1 BZM         0.1097
      2 O8          1.3670   27.4410   13.0120 O.3       1 BZM        -0.2642
      3 C7          1.9880   26.8410   11.9100 C.2       1 BZM         0.2652
      4 O7          2.9730   27.3650   11.4550 O.2       1 BZM        -0.3566
      5 C6          1.4600   25.5900   11.3090 C.ar      1 BZM         0.0622
      6 C1          2.1290   25.0460   10.2240 C.ar      1 BZM        -0.0406
      7 C5          0.3250   25.0120   11.8560 C.ar      1 BZM        -0.0406
      8 C2          1.6400   23.8820    9.6670 C.ar      1 BZM        -0.0559
      9 C4         -0.1430   23.8500   11.2800 C.ar      1 BZM        -0.0559
     10 C3          0.5220   23.2930   10.2070 C.ar      1 BZM        -0.0573
     11 C9         -0.9560   26.7620   13.7280 C.ar      1 BZM        -0.0130
     12 C14        -1.8470   25.7220   13.9230 C.ar      1 BZM        -0.0578
     13 C10        -1.4350   28.0440   13.5080 C.ar      1 BZM        -0.0578
     14 C13        -3.2050   25.9830   13.9010 C.ar      1 BZM        -0.0685
     15 C11        -2.7960   28.3050   13.4860 C.ar      1 BZM        -0.0685
     16 C12        -3.6880   27.2660   13.6850 C.ar      1 BZM        -0.0687
     17 H1          0.7142   25.5334   13.3497 H         1 BZM         0.0776
     18 H2          0.8521   26.5882   14.7971 H         1 BZM         0.0776
     19 H3          3.0154   25.5236    9.8224 H         1 BZM         0.0672
     20 H4         -0.1771   25.4580   12.7069 H         1 BZM         0.0672
     21 H5          2.1335   23.4361    8.8110 H         1 BZM         0.0630
     22 H6         -1.0347   23.3733   11.6707 H         1 BZM         0.0630
     23 H7          0.1533   22.3677    9.7793 H         1 BZM         0.0654
     24 H8         -1.4850   24.7141   14.0911 H         1 BZM         0.0557
     25 H9         -0.7338   28.8555   13.3506 H         1 BZM         0.0557
     26 H10        -3.9053   25.1701   14.0554 H         1 BZM         0.0599
     27 H11        -3.1579   29.3124   13.3147 H         1 BZM         0.0599
     28 H12        -4.7557   27.4528   13.6723 H         1 BZM         0.0559
@<TRIPOS>BOND
     1    1   11 1  
     2    1    2 1  
     3    2    3 1  
     4    3    5 1  
     5    3    4 2  
     6    5    7 ar 
     7    5    6 ar 
     8    6    8 ar 
     9    8   10 ar 
    10   10    9 ar 
    11    9    7 ar 
    12   11   13 ar 
    13   11   12 ar 
    14   12   14 ar 
    15   14   16 ar 
    16   16   15 ar 
    17   15   13 ar 
    18    1   17 1  
    19    1   18 1  
    20    6   19 1  
    21    7   20 1  
    22    8   21 1  
    23    9   22 1  
    24   10   23 1  
    25   12   24 1  
    26   13   25 1  
    27   14   26 1  
    28   15   27 1  
    29   16   28 1  
@<TRIPOS>SUBSTRUCTURE
     1 BZM         1

