### 
### Created by X-TOOL on Fri Nov 18 12:38:01 2016
### 

@<TRIPOS>MOLECULE
1dzp_ligand
   24    25     1     0     0
SMALL
GAST_HUCK


@<TRIPOS>ATOM
      1 C1         14.9880    4.1070   25.8360 C.ar      1 BZQ        -0.0560
      2 C2         14.2430    4.5720   26.9480 C.ar      1 BZQ        -0.0573
      3 C3         12.8940    4.8990   26.7960 C.ar      1 BZQ        -0.0560
      4 C4         12.2920    4.7630   25.5320 C.ar      1 BZQ        -0.0434
      5 C5         13.0180    4.3060   24.4210 C.ar      1 BZQ         0.0341
      6 C6         14.3770    3.9750   24.5890 C.ar      1 BZQ        -0.0434
      7 C7         12.4090    4.1430   23.0410 C.2       1 BZQ         0.1606
      8 C8         11.8740    6.4110   22.0880 C.ar      1 BZQ        -0.0434
      9 C9         11.4570    5.1260   22.4340 C.ar      1 BZQ         0.0341
     10 C10        10.1400    4.7560   22.1830 C.ar      1 BZQ        -0.0434
     11 C11         9.2460    5.6390   21.6140 C.ar      1 BZQ        -0.0560
     12 C12         9.6690    6.9150   21.2800 C.ar      1 BZQ        -0.0573
     13 C13        10.9890    7.2990   21.5190 C.ar      1 BZQ        -0.0560
     14 O          12.7640    3.0250   22.2650 O.2       1 BZQ        -0.3671
     15 H1         16.0352    3.8533   25.9546 H         1 BZQ         0.0630
     16 H2         14.7200    4.6738   27.9161 H         1 BZQ         0.0654
     17 H3         12.3172    5.2537   27.6425 H         1 BZQ         0.0630
     18 H4         11.2448    5.0166   25.4133 H         1 BZQ         0.0670
     19 H5         14.9519    3.6152   23.7433 H         1 BZQ         0.0670
     20 H6         12.8997    6.7121   22.2679 H         1 BZQ         0.0670
     21 H7          9.8102    3.7557   22.4391 H         1 BZQ         0.0670
     22 H8          8.2213    5.3370   21.4298 H         1 BZQ         0.0630
     23 H9          8.9738    7.6160   20.8324 H         1 BZQ         0.0654
     24 H10        11.3181    8.2979   21.2563 H         1 BZQ         0.0630
@<TRIPOS>BOND
     1    6    1 ar 
     2    1    2 ar 
     3    2    3 ar 
     4    3    4 ar 
     5    4    5 ar 
     6    5    7 1  
     7    5    6 ar 
     8    7   14 2  
     9    7    9 1  
    10    9    8 ar 
    11    9   10 ar 
    12   10   11 ar 
    13   11   12 ar 
    14   12   13 ar 
    15   13    8 ar 
    16    1   15 1  
    17    2   16 1  
    18    3   17 1  
    19    4   18 1  
    20    6   19 1  
    21    8   20 1  
    22   10   21 1  
    23   11   22 1  
    24   12   23 1  
    25   13   24 1  
@<TRIPOS>SUBSTRUCTURE
     1 BZQ         1

