### 
### Created by X-TOOL on Mon Sep 10 21:12:47 2018
### 

@<TRIPOS>MOLECULE
1e00_ligand
   33    32     1     0     0
SMALL
GAST_HUCK


@<TRIPOS>ATOM
      1 C7          1.3800   23.8270    9.5580 C.3       1 DHM        -0.0650
      2 C6          1.7000   24.4500   10.8050 C.3       1 DHM        -0.0533
      3 C5          1.4410   25.9270   10.9740 C.3       1 DHM        -0.0441
      4 C4          0.5910   26.2120   12.2120 C.3       1 DHM        -0.0504
      5 C3         -0.8610   26.3940   11.8790 C.3       1 DHM        -0.0502
      6 C2         -1.5420   27.4100   12.8070 C.3       1 DHM        -0.0245
      7 C1         -2.3440   26.7260   13.8750 C.3       1 DHM         0.0605
      8 C8         -1.6250   26.9260   15.1760 C.3       1 DHM        -0.0363
      9 C9         -2.3040   25.2650   13.5640 C.3       1 DHM        -0.0363
     10 C10         2.7700   26.5980   11.0990 C.3       1 DHM        -0.0624
     11 O1         -3.7730   27.1630   14.0030 O.3       1 DHM        -0.3891
     12 H1          1.6305   22.7571    9.6078 H         1 DHM         0.0230
     13 H2          1.9584   24.3018    8.7518 H         1 DHM         0.0230
     14 H3          0.3051   23.9428    9.3554 H         1 DHM         0.0230
     15 H4          2.7742   24.2894   10.9790 H         1 DHM         0.0265
     16 H5          1.1209   23.9305   11.5826 H         1 DHM         0.0265
     17 H6          0.9149   26.3091   10.0868 H         1 DHM         0.0298
     18 H7          0.9614   27.1303   12.6912 H         1 DHM         0.0268
     19 H8          0.6902   25.3682   12.9106 H         1 DHM         0.0268
     20 H9         -1.3720   25.4249   11.9778 H         1 DHM         0.0266
     21 H10        -0.9454   26.7490   10.8413 H         1 DHM         0.0266
     22 H11        -2.2111   28.0472   12.2101 H         1 DHM         0.0293
     23 H12        -0.7704   28.0330   13.2829 H         1 DHM         0.0293
     24 H13        -2.1869   26.4357   15.9846 H         1 DHM         0.0257
     25 H14        -1.5421   28.0023   15.3875 H         1 DHM         0.0257
     26 H15        -0.6187   26.4866   15.1102 H         1 DHM         0.0257
     27 H16        -2.8237   25.0783   12.6127 H         1 DHM         0.0257
     28 H17        -2.8013   24.7049   14.3695 H         1 DHM         0.0257
     29 H18        -1.2576   24.9363   13.4808 H         1 DHM         0.0257
     30 H19         3.3731   26.3866   10.2037 H         1 DHM         0.0232
     31 H20         3.2906   26.2173   11.9900 H         1 DHM         0.0232
     32 H21         2.6248   27.6841   11.1952 H         1 DHM         0.0232
     33 H22        -4.2185   27.0321   13.1742 H         1 DHM         0.2101
@<TRIPOS>BOND
     1    1    2 1  
     2    2    3 1  
     3    3    4 1  
     4    3   10 1  
     5    4    5 1  
     6    5    6 1  
     7    6    7 1  
     8    7    8 1  
     9    7    9 1  
    10    7   11 1  
    11    1   12 1  
    12    1   13 1  
    13    1   14 1  
    14    2   15 1  
    15    2   16 1  
    16    3   17 1  
    17    4   18 1  
    18    4   19 1  
    19    5   20 1  
    20    5   21 1  
    21    6   22 1  
    22    6   23 1  
    23    8   24 1  
    24    8   25 1  
    25    8   26 1  
    26    9   27 1  
    27    9   28 1  
    28    9   29 1  
    29   10   30 1  
    30   10   31 1  
    31   10   32 1  
    32   11   33 1  
@<TRIPOS>SUBSTRUCTURE
     1 DHM         1

