### 
### Created by X-TOOL on Mon Sep 10 21:12:47 2018
### 

@<TRIPOS>MOLECULE
1e02_ligand
   34    33     1     0     0
SMALL
GAST_HUCK


@<TRIPOS>ATOM
      1 C11        -0.3830   26.7480   10.7750 C.3       1 UNA        -0.0653
      2 C10         0.6160   25.5470   10.8870 C.3       1 UNA        -0.0559
      3 C9          1.9160   25.9320   11.4160 C.3       1 UNA        -0.0533
      4 C8          2.0120   27.3970   11.6870 C.3       1 UNA        -0.0531
      5 C7          3.1190   27.8660   12.8070 C.3       1 UNA        -0.0531
      6 C6          2.6120   28.1040   14.2600 C.3       1 UNA        -0.0531
      7 C5          1.1560   27.7040   14.4190 C.3       1 UNA        -0.0529
      8 C4          0.3270   28.9690   14.8550 C.3       1 UNA        -0.0509
      9 C3         -1.0620   28.9080   14.1810 C.3       1 UNA        -0.0373
     10 C2         -1.6010   27.3960   14.2820 C.3       1 UNA         0.0189
     11 C1         -2.9520   27.2540   13.7050 C.2       1 UNA         0.0991
     12 O1         -2.9100   26.2050   13.2270 O.2       1 UNA        -0.3749
     13 H1         -1.3416   26.3910   10.3705 H         1 UNA         0.0230
     14 H2          0.0362   27.5123   10.1041 H         1 UNA         0.0230
     15 H3         -0.5453   27.1842   11.7717 H         1 UNA         0.0230
     16 H4          0.7596   25.1166    9.8849 H         1 UNA         0.0263
     17 H5          0.1781   24.7885   11.5526 H         1 UNA         0.0263
     18 H6          2.6900   25.6572   10.6843 H         1 UNA         0.0265
     19 H7          2.0898   25.3874   12.3557 H         1 UNA         0.0265
     20 H8          1.0244   27.7385   12.0304 H         1 UNA         0.0265
     21 H9          2.2636   27.8961   10.7396 H         1 UNA         0.0265
     22 H10         3.5658   28.8076   12.4552 H         1 UNA         0.0265
     23 H11         3.8939   27.0865   12.8515 H         1 UNA         0.0265
     24 H12         2.7171   29.1714   14.5040 H         1 UNA         0.0265
     25 H13         3.2233   27.5075   14.9531 H         1 UNA         0.0265
     26 H14         1.0692   26.9222   15.1879 H         1 UNA         0.0265
     27 H15         0.7710   27.3216   13.4622 H         1 UNA         0.0265
     28 H16         0.8519   29.8825   14.5388 H         1 UNA         0.0267
     29 H17         0.2078   28.9745   15.9485 H         1 UNA         0.0267
     30 H18        -0.9772   29.2037   13.1249 H         1 UNA         0.0290
     31 H19        -1.7569   29.5867   14.6972 H         1 UNA         0.0290
     32 H20        -1.6336   27.1000   15.3409 H         1 UNA         0.0493
     33 H21        -0.9105   26.7351   13.7376 H         1 UNA         0.0493
     34 H22        -3.7798   27.9613   13.7254 H         1 UNA         0.1348
@<TRIPOS>BOND
     1    1    2 1  
     2    2    3 1  
     3    3    4 1  
     4    4    5 1  
     5    5    6 1  
     6    6    7 1  
     7    7    8 1  
     8    8    9 1  
     9    9   10 1  
    10   10   11 1  
    11   11   12 2  
    12    1   13 1  
    13    1   14 1  
    14    1   15 1  
    15    2   16 1  
    16    2   17 1  
    17    3   18 1  
    18    3   19 1  
    19    4   20 1  
    20    4   21 1  
    21    5   22 1  
    22    5   23 1  
    23    6   24 1  
    24    6   25 1  
    25    7   26 1  
    26    7   27 1  
    27    8   28 1  
    28    8   29 1  
    29    9   30 1  
    30    9   31 1  
    31   10   32 1  
    32   10   33 1  
    33   11   34 1  
@<TRIPOS>SUBSTRUCTURE
     1 UNA         1

