### 
### Created by X-TOOL on Mon Sep 10 21:12:47 2018
### 

@<TRIPOS>MOLECULE
1e06_ligand
   25    25     1     0     0
SMALL
GAST_HUCK


@<TRIPOS>ATOM
      1 C4         -0.3210   26.5360   12.3200 C.ar      1 IPB        -0.0181
      2 C5         -0.8400   25.3960   12.6760 C.ar      1 IPB        -0.0750
      3 C6         -2.1600   25.3250   13.3620 C.ar      1 IPB        -0.0783
      4 C1         -2.8440   26.4530   13.6290 C.ar      1 IPB        -0.0616
      5 C2         -2.2690   27.6790   13.2360 C.ar      1 IPB        -0.0387
      6 C3         -1.0940   27.7760   12.6170 C.ar      1 IPB         0.0832
      7 C8          1.0310   26.6190   11.6050 C.3       1 IPB        -0.0180
      8 C7         -4.1540   26.4090   14.2980 C.3       1 IPB        -0.0367
      9 O          -0.6470   29.0110   12.3010 O.3       1 IPB        -0.3385
     10 C9          2.1090   25.7470   12.2720 C.3       1 IPB        -0.0553
     11 C10         0.9270   26.2790   10.1480 C.3       1 IPB        -0.0553
     12 H1         -0.2999   24.4793   12.4687 H         1 IPB         0.0510
     13 H2         -2.5706   24.3631   13.6468 H         1 IPB         0.0446
     14 H3         -2.8129   28.5921   13.4493 H         1 IPB         0.0460
     15 H4          1.3656   27.6645   11.6756 H         1 IPB         0.0420
     16 H5         -4.4183   25.3642   14.5183 H         1 IPB         0.0376
     17 H6         -4.9171   26.8491   13.6393 H         1 IPB         0.0376
     18 H7         -4.1058   26.9807   15.2365 H         1 IPB         0.0376
     19 H8          0.1951   28.9403   11.8668 H         1 IPB         0.2455
     20 H9          3.0545   25.8456   11.7185 H         1 IPB         0.0250
     21 H10         1.7870   24.6952   12.2633 H         1 IPB         0.0250
     22 H11         2.2563   26.0768   13.3110 H         1 IPB         0.0250
     23 H12         0.1547   26.9065    9.6793 H         1 IPB         0.0250
     24 H13         0.6550   25.2189   10.0373 H         1 IPB         0.0250
     25 H14         1.8950   26.4622    9.6587 H         1 IPB         0.0250
@<TRIPOS>BOND
     1    1    7 1  
     2    1    6 ar 
     3    1    2 ar 
     4    2    3 ar 
     5    3    4 ar 
     6    4    8 1  
     7    4    5 ar 
     8    5    6 ar 
     9    6    9 1  
    10    7   11 1  
    11    7   10 1  
    12    2   12 1  
    13    3   13 1  
    14    5   14 1  
    15    7   15 1  
    16    8   16 1  
    17    8   17 1  
    18    8   18 1  
    19    9   19 1  
    20   10   20 1  
    21   10   21 1  
    22   10   22 1  
    23   11   23 1  
    24   11   24 1  
    25   11   25 1  
@<TRIPOS>SUBSTRUCTURE
     1 IPB         1

