### 
### Created by X-TOOL on Mon Sep 10 21:12:48 2018
### 

@<TRIPOS>MOLECULE
1e1v_ligand
   35    37     1     0     0
SMALL
GAST_HUCK


@<TRIPOS>ATOM
      1 N1          2.4450   28.9910    7.3460 N.ar      1 CMG        -0.2437
      2 C2          2.9810   29.9600    6.6140 C.ar      1 CMG         0.1558
      3 N3          2.3900   31.1700    6.6090 N.ar      1 CMG        -0.2609
      4 C4          1.3010   31.4190    7.3260 C.ar      1 CMG         0.1436
      5 C5          0.7490   30.4080    8.0490 C.ar      1 CMG         0.1035
      6 C6          1.3270   29.1410    8.0570 C.ar      1 CMG         0.1748
      7 O6          0.7220   28.1600    8.8410 O.3       1 CMG        -0.2930
      8 C9          1.7060   27.1180    9.1120 C.3       1 CMG         0.0801
      9 N7         -0.2920   31.0010    8.6180 N.2       1 CMG        -0.3024
     10 C8         -0.4920   32.3190    8.2780 C.2       1 CMG         0.1030
     11 N9          0.5880   32.5280    7.4900 N.pl3     1 CMG        -0.2405
     12 N2          4.1220   29.9810    5.8800 N.pl3     1 CMG        -0.3110
     13 C10         0.9790   26.3030   10.2570 C.3       1 CMG        -0.0121
     14 C11        -0.2230   25.5700    9.5700 C.3       1 CMG        -0.0477
     15 C12        -0.7780   24.5780   10.5920 C.3       1 CMG        -0.0527
     16 C13         0.1720   23.3870   10.3210 C.3       1 CMG        -0.0530
     17 C14         1.3640   23.9990   11.1710 C.3       1 CMG        -0.0527
     18 C15         1.8480   25.0470   10.1260 C.3       1 CMG        -0.0477
     19 H1          2.6583   27.5433    9.4617 H         1 CMG         0.0630
     20 H2          1.8872   26.4934    8.2248 H         1 CMG         0.0630
     21 H3         -1.2923   33.0006    8.5623 H         1 CMG         0.1316
     22 H4          0.8282   33.4366    7.0685 H         1 CMG         0.2379
     23 H5          4.6904   29.1271    5.7871 H         1 CMG         0.1809
     24 H6          4.4198   30.8509    5.4157 H         1 CMG         0.1809
     25 H7          0.8220   26.7971   11.2271 H         1 CMG         0.0328
     26 H8          0.1222   25.0357    8.6726 H         1 CMG         0.0269
     27 H9         -0.9988   26.2971    9.2882 H         1 CMG         0.0269
     28 H10        -1.8281   24.3215   10.3885 H         1 CMG         0.0265
     29 H11        -0.6850   24.9527   11.6220 H         1 CMG         0.0265
     30 H12         0.4185   23.2634    9.2561 H         1 CMG         0.0265
     31 H13        -0.2023   22.4343   10.7237 H         1 CMG         0.0265
     32 H14         2.1378   23.2526   11.4036 H         1 CMG         0.0265
     33 H15         1.0152   24.4682   12.1027 H         1 CMG         0.0265
     34 H16         2.9006   25.3026   10.3173 H         1 CMG         0.0269
     35 H17         1.7499   24.6322    9.1120 H         1 CMG         0.0269
@<TRIPOS>BOND
     1    1    6 ar 
     2    1    2 ar 
     3    2   12 1  
     4    2    3 ar 
     5    3    4 ar 
     6    4   11 1  
     7    4    5 ar 
     8    5    9 1  
     9    5    6 ar 
    10    6    7 1  
    11    7    8 1  
    12    8   13 1  
    13   13   18 1  
    14   13   14 1  
    15   14   15 1  
    16   15   16 1  
    17   16   17 1  
    18   17   18 1  
    19    9   10 2  
    20   10   11 1  
    21    8   19 1  
    22    8   20 1  
    23   10   21 1  
    24   11   22 1  
    25   12   23 1  
    26   12   24 1  
    27   13   25 1  
    28   14   26 1  
    29   14   27 1  
    30   15   28 1  
    31   15   29 1  
    32   16   30 1  
    33   16   31 1  
    34   17   32 1  
    35   17   33 1  
    36   18   34 1  
    37   18   35 1  
@<TRIPOS>SUBSTRUCTURE
     1 CMG         1

