### 
### Created by X-TOOL on Mon Sep 10 21:12:48 2018
### 

@<TRIPOS>MOLECULE
1e1x_ligand
   35    36     1     0     0
SMALL
GAST_HUCK


@<TRIPOS>ATOM
      1 N1          2.1630   28.4110    7.1980 N.ar      1 NW1        -0.2336
      2 C6          1.2250   28.4780    8.1800 C.ar      1 NW1         0.2017
      3 O6          0.9650   27.3090    8.8980 O.3       1 NW1        -0.2857
      4 C1          1.9190   26.2340    8.6810 C.3       1 NW1         0.0824
      5 C3          1.6440   25.2190    9.7930 C.3       1 NW1        -0.0117
      6 C11         0.1380   25.0120   10.0520 C.3       1 NW1        -0.0476
      7 C10        -0.0450   24.0560   11.2680 C.3       1 NW1        -0.0527
      8 C9          0.6520   22.6910   10.9410 C.3       1 NW1        -0.0530
      9 C8          2.1770   22.9700   10.8330 C.3       1 NW1        -0.0527
     10 C7          2.3790   23.8680    9.5680 C.3       1 NW1        -0.0476
     11 C5          0.5130   29.7550    8.4910 C.ar      1 NW1         0.2097
     12 N7         -0.4380   29.6840    9.5840 N.2       1 NW1        -0.0707
     13 O8         -1.0670   30.7150    9.8740 O.2       1 NW1        -0.2685
     14 C4          0.8580   30.8220    7.7690 C.ar      1 NW1         0.1476
     15 N9          0.3240   31.9930    7.9600 N.pl3     1 NW1        -0.3108
     16 N3          1.8720   30.6210    6.7240 N.ar      1 NW1        -0.2434
     17 C2          2.4880   29.5500    6.4660 C.ar      1 NW1         0.1702
     18 N2          3.4110   29.4190    5.5470 N.pl3     1 NW1        -0.3029
     19 H1          2.9492   26.6131    8.7516 H         1 NW1         0.0634
     20 H2          1.7641   25.7749    7.6935 H         1 NW1         0.0634
     21 H3          2.0618   25.6512   10.7142 H         1 NW1         0.0328
     22 H4         -0.3311   24.5685    9.1614 H         1 NW1         0.0269
     23 H5         -0.3344   25.9809   10.2713 H         1 NW1         0.0269
     24 H6         -1.1169   23.8901   11.4508 H         1 NW1         0.0265
     25 H7          0.4148   24.5018   12.1623 H         1 NW1         0.0265
     26 H8          0.2731   22.2927    9.9882 H         1 NW1         0.0265
     27 H9          0.4573   21.9659   11.7449 H         1 NW1         0.0265
     28 H10         2.7286   22.0251   10.7195 H         1 NW1         0.0265
     29 H11         2.5312   23.4957   11.7320 H         1 NW1         0.0265
     30 H12         3.4523   24.0520    9.4124 H         1 NW1         0.0269
     31 H13         1.9618   23.3623    8.6847 H         1 NW1         0.0269
     32 H14         0.6171   32.7932    7.3815 H         1 NW1         0.1854
     33 H15        -0.3918   32.1198    8.6897 H         1 NW1         0.1854
     34 H16         3.8659   28.5066    5.4004 H         1 NW1         0.1861
     35 H17         3.6823   30.2283    4.9706 H         1 NW1         0.1861
@<TRIPOS>BOND
     1    1   17 ar 
     2    1    2 ar 
     3    2   11 ar 
     4    2    3 1  
     5    3    4 1  
     6    4    5 1  
     7    5   10 1  
     8    5    6 1  
     9    6    7 1  
    10    7    8 1  
    11    8    9 1  
    12    9   10 1  
    13   11   14 ar 
    14   11   12 1  
    15   12   13 2  
    16   14   16 ar 
    17   14   15 1  
    18   16   17 ar 
    19   17   18 1  
    20    4   19 1  
    21    4   20 1  
    22    5   21 1  
    23    6   22 1  
    24    6   23 1  
    25    7   24 1  
    26    7   25 1  
    27    8   26 1  
    28    8   27 1  
    29    9   28 1  
    30    9   29 1  
    31   10   30 1  
    32   10   31 1  
    33   15   32 1  
    34   15   33 1  
    35   18   34 1  
    36   18   35 1  
@<TRIPOS>SUBSTRUCTURE
     1 NW1         1

