### 
### Created by X-TOOL on Mon Sep 10 21:12:47 2018
### 

@<TRIPOS>MOLECULE
1e1y_ligand
   49    52     1     0     0
SMALL
GAST_HUCK


@<TRIPOS>ATOM
      1 C1         43.5000   39.9190   27.6330 C.3       1 CPB        -0.0430
      2 N1         42.4820   39.5270   28.6180 N.4       1 CPB         0.2351
      3 C16        41.0990   39.6420   28.1280 C.3       1 CPB        -0.0305
      4 C15        39.9930   39.2520   29.1770 C.3       1 CPB        -0.0017
      5 C14        40.3490   37.8830   29.8290 C.3       1 CPB         0.0215
      6 C13        41.8300   37.8440   30.3560 C.3       1 CPB         0.1030
      7 C12        42.7910   38.1840   29.1840 C.3       1 CPB        -0.0040
      8 C8         39.1980   37.5070   30.8610 C.ar      1 CPB         0.0228
      9 C9         38.3190   36.4010   30.5370 C.ar      1 CPB         0.1322
     10 O1         38.4850   35.7040   29.3290 O.3       1 CPB        -0.2448
     11 C2         37.7050   34.6330   28.9300 C.2       1 CPB         0.1417
     12 C3         36.6890   34.1770   29.7070 C.2       1 CPB         0.0078
     13 C4         36.3940   34.8160   31.0020 C.2       1 CPB         0.0995
     14 O4         35.4830   34.3940   31.6860 O.2       1 CPB        -0.4249
     15 C10        37.2780   36.0050   31.4560 C.ar      1 CPB         0.0721
     16 C5         37.0970   36.6930   32.7000 C.ar      1 CPB         0.0869
     17 O5         36.0770   36.3310   33.5940 O.3       1 CPB        -0.3368
     18 C6         37.9470   37.7820   33.0200 C.ar      1 CPB        -0.0144
     19 C7         38.9830   38.1950   32.1250 C.ar      1 CPB         0.0802
     20 O7         39.7960   39.2810   32.5160 O.3       1 CPB        -0.3389
     21 C21        37.9930   33.9370   27.5750 C.ar      1 CPB         0.0440
     22 C22        38.3630   34.6620   26.3900 C.ar      1 CPB         0.0577
     23 CL1        38.5130   36.3980   26.3540 Cl        1 CPB        -0.0650
     24 C23        38.6270   33.9870   25.1780 C.ar      1 CPB        -0.0431
     25 C24        38.5250   32.5670   25.0970 C.ar      1 CPB        -0.0577
     26 C25        38.1580   31.8200   26.2640 C.ar      1 CPB        -0.0569
     27 C26        37.8930   32.4990   27.4850 C.ar      1 CPB        -0.0446
     28 O3         42.1540   38.8030   31.3640 O.3       1 CPB        -0.3849
     29 H1         43.2546   40.9116   27.2273 H         1 CPB         0.0778
     30 H2         43.5213   39.1837   26.8152 H         1 CPB         0.0778
     31 H3         44.4860   39.9552   28.1193 H         1 CPB         0.0778
     32 H4         42.5586   40.1826   29.3798 H         1 CPB         0.2031
     33 H5         40.9895   38.9828   27.2542 H         1 CPB         0.0816
     34 H6         40.9293   40.6854   27.8237 H         1 CPB         0.0816
     35 H7         39.0197   39.1739   28.6705 H         1 CPB         0.0335
     36 H8         39.9394   40.0258   29.9570 H         1 CPB         0.0335
     37 H9         40.3036   37.1248   29.0334 H         1 CPB         0.0427
     38 H10        42.0323   36.8336   30.7408 H         1 CPB         0.0665
     39 H11        43.8269   38.1784   29.5541 H         1 CPB         0.0841
     40 H12        42.6794   37.4258   28.3949 H         1 CPB         0.0841
     41 H13        36.0880   33.3333   29.3710 H         1 CPB         0.0418
     42 H14        36.1968   35.4269   33.8602 H         1 CPB         0.2482
     43 H15        37.8094   38.3093   33.9571 H         1 CPB         0.0388
     44 H16        40.4396   39.4532   31.8388 H         1 CPB         0.2468
     45 H17        38.9104   34.5548   24.2992 H         1 CPB         0.0633
     46 H18        38.7232   32.0570   24.1612 H         1 CPB         0.0647
     47 H19        38.0826   30.7397   26.2159 H         1 CPB         0.0629
     48 H20        37.6114   31.9281   28.3624 H         1 CPB         0.0661
     49 H21        41.6024   38.6604   32.1241 H         1 CPB         0.2102
@<TRIPOS>BOND
     1    1    2 1  
     2    2    3 1  
     3    2    7 1  
     4    3    4 1  
     5    4    5 1  
     6    5    6 1  
     7    5    8 1  
     8    6    7 1  
     9    6   28 1  
    10    8    9 ar 
    11    8   19 ar 
    12    9   10 1  
    13    9   15 ar 
    14   10   11 1  
    15   11   12 2  
    16   11   21 1  
    17   12   13 1  
    18   13   14 2  
    19   13   15 1  
    20   15   16 ar 
    21   16   17 1  
    22   16   18 ar 
    23   18   19 ar 
    24   19   20 1  
    25   21   22 ar 
    26   21   27 ar 
    27   22   23 1  
    28   22   24 ar 
    29   24   25 ar 
    30   25   26 ar 
    31   26   27 ar 
    32    1   29 1  
    33    1   30 1  
    34    1   31 1  
    35    2   32 1  
    36    3   33 1  
    37    3   34 1  
    38    4   35 1  
    39    4   36 1  
    40    5   37 1  
    41    6   38 1  
    42    7   39 1  
    43    7   40 1  
    44   12   41 1  
    45   17   42 1  
    46   18   43 1  
    47   20   44 1  
    48   24   45 1  
    49   25   46 1  
    50   26   47 1  
    51   27   48 1  
    52   28   49 1  
@<TRIPOS>SUBSTRUCTURE
     1 CPB         1

