### 
### Created by X-TOOL on Mon Sep 10 21:12:47 2018
### 

@<TRIPOS>MOLECULE
1e2k_ligand
   34    36     1     0     0
SMALL
GAST_HUCK


@<TRIPOS>ATOM
      1 O16        50.3650   35.7730    1.2290 O.3       1 TMC        -0.3944
      2 O18        50.7440   34.6090   -2.0410 O.3       1 TMC        -0.3911
      3 O9         45.4850   31.6870   -1.2610 O.2       1 TMC        -0.3843
      4 O7         43.1910   34.5170    1.4590 O.2       1 TMC        -0.4079
      5 N8         46.6500   33.2970   -0.0480 N.am      1 TMC        -0.1975
      6 N5         44.3790   33.1100    0.1630 N.am      1 TMC        -0.1860
      7 C1         50.1450   33.6030    0.1970 C.3       1 TMC         0.0257
      8 C10        49.7430   34.2920   -1.1100 C.3       1 TMC         0.0660
      9 C14        48.4730   33.6530   -1.6110 C.3       1 TMC         0.0040
     10 C17        47.9650   32.7100   -0.5190 C.3       1 TMC         0.0782
     11 C13        49.0050   32.6710    0.6400 C.3       1 TMC        -0.0003
     12 C15        50.3270   32.1180    0.1530 C.3       1 TMC        -0.0364
     13 C12        50.8100   34.3980    1.2750 C.3       1 TMC         0.0525
     14 C11        45.5520   32.6120   -0.4750 C.2       1 TMC         0.3246
     15 C6         44.3590   34.1810    1.0470 C.2       1 TMC         0.1930
     16 C4         45.5420   34.8400    1.4210 C.2       1 TMC         0.0224
     17 C2         46.6870   34.3520    0.8440 C.2       1 TMC         0.0501
     18 C3         45.6000   35.9960    2.3980 C.3       1 TMC        -0.0437
     19 H1         50.7941   36.2667    1.9178 H         1 TMC         0.2094
     20 H2         51.4815   35.0026   -1.5897 H         1 TMC         0.2098
     21 H3         43.5107   32.6572   -0.0397 H         1 TMC         0.2259
     22 H4         49.4186   35.2915   -0.7848 H         1 TMC         0.0600
     23 H5         47.7199   34.4278   -1.8172 H         1 TMC         0.0319
     24 H6         48.6768   33.0856   -2.5311 H         1 TMC         0.0319
     25 H7         47.8124   31.6960   -0.9172 H         1 TMC         0.0645
     26 H8         48.6058   32.5526    1.6581 H         1 TMC         0.0337
     27 H9         51.0100   31.6303    0.8641 H         1 TMC         0.0276
     28 H10        50.3790   31.6028   -0.8175 H         1 TMC         0.0276
     29 H11        50.5554   33.9664    2.2542 H         1 TMC         0.0563
     30 H12        51.9001   34.3640    1.1315 H         1 TMC         0.0563
     31 H13        47.6450   34.8054    1.0941 H         1 TMC         0.1010
     32 H14        46.6429   36.3262    2.5138 H         1 TMC         0.0296
     33 H15        45.2076   35.6720    3.3732 H         1 TMC         0.0296
     34 H16        44.9918   36.8294    2.0165 H         1 TMC         0.0296
@<TRIPOS>BOND
     1   13    1 1  
     2   13    7 1  
     3    7    8 1  
     4    7   11 1  
     5    7   12 1  
     6   11   12 1  
     7   11   10 1  
     8   10    5 1  
     9   10    9 1  
    10    9    8 1  
    11    8    2 1  
    12    5   14 am 
    13    5   17 am 
    14   17   16 2  
    15   16   18 1  
    16   16   15 1  
    17   15    4 2  
    18   15    6 am 
    19    6   14 am 
    20   14    3 2  
    21    1   19 1  
    22    2   20 1  
    23    6   21 1  
    24    8   22 1  
    25    9   23 1  
    26    9   24 1  
    27   10   25 1  
    28   11   26 1  
    29   12   27 1  
    30   12   28 1  
    31   13   29 1  
    32   13   30 1  
    33   17   31 1  
    34   18   32 1  
    35   18   33 1  
    36   18   34 1  
@<TRIPOS>SUBSTRUCTURE
     1 TMC         1

