### 
### Created by X-TOOL on Mon Sep 10 21:12:47 2018
### 

@<TRIPOS>MOLECULE
1e34_ligand
   39    39     1     0     0
SMALL
GAST_HUCK


@<TRIPOS>ATOM
      1 C          -9.0360   23.7870   37.6540 C.2       1 TPX         0.1041
      2 CA        -10.4560   23.2700   37.7690 C.3       1 TPX         0.0459
      3 CB        -10.6410   22.1640   36.8160 C.3       1 TPX         0.0469
      4 CC        -12.0150   21.5610   36.8870 C.2       1 TPX         0.0420
      5 CD        -11.4020   24.4160   37.5870 C.3       1 TPX        -0.0355
      6 CE        -11.0880   25.5130   38.5910 C.3       1 TPX        -0.0628
      7 O          -8.5430   24.4530   36.7620 O.2       1 TPX        -0.3745
      8 OA        -12.5260   21.1910   35.7980 O.co2     1 TPX        -0.5685
      9 OB        -12.5550   21.4450   38.0030 O.co2     1 TPX        -0.5685
     10 CK         -9.6190   21.0950   36.8170 C.3       1 TPX         0.0432
     11 N          -8.2370   21.4900   36.6760 N.am      1 TPX        -0.2461
     12 OC         -8.5790   22.2170   34.2940 O.2       1 TPX        -0.1512
     13 OD         -6.3140   22.0310   35.2180 O.2       1 TPX        -0.1512
     14 S          -7.6510   21.5780   35.1370 S.o2      1 TPX         0.0653
     15 CF         -7.5250   19.8540   34.7370 C.ar      1 TPX         0.1011
     16 CG1        -6.0850   19.6590   34.0230 C.ar      1 TPX        -0.0420
     17 CG2        -8.3460   18.9860   34.4160 C.ar      1 TPX        -0.0420
     18 CH1        -5.7890   18.3930   33.5580 C.ar      1 TPX        -0.0588
     19 CH2        -8.0500   17.7210   33.9500 C.ar      1 TPX        -0.0588
     20 CI         -6.7720   17.4220   33.5210 C.ar      1 TPX        -0.0460
     21 CJ         -6.4510   16.0460   33.0140 C.3       1 TPX        -0.0311
     22 H1         -8.3700   23.5292   38.4762 H         1 TPX         0.1353
     23 H2        -10.6076   22.8679   38.7816 H         1 TPX         0.0550
     24 H3        -10.5654   22.6344   35.8246 H         1 TPX         0.0510
     25 H4        -12.4331   24.0653   37.7411 H         1 TPX         0.0292
     26 H5        -11.2990   24.8151   36.5672 H         1 TPX         0.0292
     27 H6        -11.7874   26.3502   38.4500 H         1 TPX         0.0231
     28 H7        -10.0576   25.8663   38.4378 H         1 TPX         0.0231
     29 H8        -11.1918   25.1165   39.6118 H         1 TPX         0.0231
     30 H9         -9.8533   20.4151   35.9846 H         1 TPX         0.0498
     31 H10        -9.7106   20.5532   37.7699 H         1 TPX         0.0498
     32 H11        -7.6656   21.6991   37.4696 H         1 TPX         0.1673
     33 H12        -5.3876   20.4818   33.9153 H         1 TPX         0.0619
     34 H13        -9.3950   19.2427   34.5094 H         1 TPX         0.0619
     35 H14        -4.7850   18.1605   33.2217 H         1 TPX         0.0557
     36 H15        -8.8222   16.9608   33.9207 H         1 TPX         0.0557
     37 H16        -5.3918   16.0012   32.7207 H         1 TPX         0.0391
     38 H17        -7.0826   15.8198   32.1423 H         1 TPX         0.0391
     39 H18        -6.6433   15.3088   33.8074 H         1 TPX         0.0391
@<TRIPOS>BOND
     1    1    2 1  
     2    1    7 2  
     3    2    3 1  
     4    2    5 1  
     5    3    4 1  
     6    3   10 1  
     7    4    8 ar 
     8    4    9 ar 
     9    5    6 1  
    10   10   11 1  
    11   11   14 am 
    12   14   12 2  
    13   14   13 2  
    14   14   15 1  
    15   15   16 ar 
    16   15   17 ar 
    17   16   18 ar 
    18   17   19 ar 
    19   18   20 ar 
    20   19   20 ar 
    21   20   21 1  
    22    1   22 1  
    23    2   23 1  
    24    3   24 1  
    25    5   25 1  
    26    5   26 1  
    27    6   27 1  
    28    6   28 1  
    29    6   29 1  
    30   10   30 1  
    31   10   31 1  
    32   11   32 1  
    33   16   33 1  
    34   17   34 1  
    35   18   35 1  
    36   19   36 1  
    37   21   37 1  
    38   21   38 1  
    39   21   39 1  
@<TRIPOS>SUBSTRUCTURE
     1 TPX         1

