### 
### Created by X-TOOL on Mon Sep 10 21:12:47 2018
### 

@<TRIPOS>MOLECULE
1e37_ligand
   38    38     1     0     0
SMALL
GAST_HUCK


@<TRIPOS>ATOM
      1 C          -9.1260   24.0010   37.7900 C.2       1 TPY         0.1041
      2 CA        -10.5040   23.4080   37.8760 C.3       1 TPY         0.0459
      3 CB        -10.6740   22.3720   36.8460 C.3       1 TPY         0.0469
      4 CC        -12.0030   21.6850   36.9380 C.2       1 TPY         0.0420
      5 CD        -11.5030   24.5360   37.8060 C.3       1 TPY        -0.0355
      6 CE        -11.1790   25.6560   38.7850 C.3       1 TPY        -0.0628
      7 O          -8.6600   24.6410   36.8560 O.2       1 TPY        -0.3745
      8 OA        -12.5620   21.3300   35.8780 O.co2     1 TPY        -0.5685
      9 OB        -12.4810   21.4910   38.0590 O.co2     1 TPY        -0.5685
     10 OC         -8.6600   22.0470   34.2340 O.2       1 TPY        -0.1496
     11 OD         -6.6650   22.9970   35.2010 O.2       1 TPY        -0.1496
     12 S          -7.6140   21.9140   35.1610 S.o2      1 TPY         0.0706
     13 N          -8.2560   21.7210   36.6460 N.am      1 TPY        -0.2449
     14 CK         -9.6280   21.3130   36.8120 C.3       1 TPY         0.0433
     15 CF         -6.5680   20.5080   35.0480 C.ar      1 TPY         0.1134
     16 CG1        -5.1970   20.6960   35.0520 C.ar      1 TPY        -0.0270
     17 CG2        -7.1010   19.2320   34.9730 C.ar      1 TPY        -0.0270
     18 CH1        -4.3350   19.6060   34.9720 C.ar      1 TPY        -0.0170
     19 CH2        -6.2150   18.1810   34.9000 C.ar      1 TPY        -0.0170
     20 CI         -4.8500   18.3280   34.8990 C.ar      1 TPY         0.1997
     21 NJ         -3.9870   17.0990   34.8260 N.2       1 TPY         0.3148
     22 OE         -4.6300   16.0320   34.7510 O.2       1 TPY         0.1782
     23 OF         -2.7680   17.3080   34.8480 O.2       1 TPY         0.1782
     24 H1         -8.4737   23.8453   38.6480 H         1 TPY         0.1353
     25 H2        -10.6172   22.9195   38.8550 H         1 TPY         0.0550
     26 H3        -10.6341   22.8951   35.8792 H         1 TPY         0.0510
     27 H4        -12.5018   24.1391   38.0405 H         1 TPY         0.0292
     28 H5        -11.5019   24.9468   36.7856 H         1 TPY         0.0292
     29 H6        -11.9338   26.4511   38.6953 H         1 TPY         0.0231
     30 H7        -10.1847   26.0669   38.5561 H         1 TPY         0.0231
     31 H8        -11.1845   25.2593   39.8109 H         1 TPY         0.0231
     32 H9         -7.6901   21.8880   37.4534 H         1 TPY         0.1674
     33 H10        -9.8719   20.6393   35.9774 H         1 TPY         0.0498
     34 H11        -9.6920   20.7598   37.7606 H         1 TPY         0.0498
     35 H12        -4.7915   21.6991   35.1179 H         1 TPY         0.0652
     36 H13        -8.1725   19.0675   34.9718 H         1 TPY         0.0652
     37 H14        -3.2621   19.7607   34.9671 H         1 TPY         0.0693
     38 H15        -6.6193   17.1770   34.8397 H         1 TPY         0.0693
@<TRIPOS>BOND
     1    2    1 1  
     2    1    7 2  
     3    3    2 1  
     4    2    5 1  
     5    3    4 1  
     6   14    3 1  
     7    4    8 ar 
     8    4    9 ar 
     9    5    6 1  
    10   12   10 2  
    11   12   11 2  
    12   13   12 am 
    13   12   15 1  
    14   13   14 1  
    15   15   16 ar 
    16   15   17 ar 
    17   16   18 ar 
    18   17   19 ar 
    19   18   20 ar 
    20   19   20 ar 
    21   20   21 1  
    22   21   22 2  
    23   21   23 2  
    24    1   24 1  
    25    2   25 1  
    26    3   26 1  
    27    5   27 1  
    28    5   28 1  
    29    6   29 1  
    30    6   30 1  
    31    6   31 1  
    32   13   32 1  
    33   14   33 1  
    34   14   34 1  
    35   16   35 1  
    36   17   36 1  
    37   18   37 1  
    38   19   38 1  
@<TRIPOS>SUBSTRUCTURE
     1 TPY         1

