### 
### Created by X-TOOL on Mon Sep 10 21:12:48 2018
### 

@<TRIPOS>MOLECULE
1e3g_ligand
   45    48     1     0     0
SMALL
GAST_HUCK


@<TRIPOS>ATOM
      1 C1          0.4140   28.0700    4.1030 C.3       1 R18         0.0280
      2 C2          1.1950   26.9990    4.8320 C.3       1 R18         0.0431
      3 C3          2.6610   27.1400    4.5320 C.2       1 R18         0.1453
      4 C4          3.1740   28.4570    4.7940 C.2       1 R18         0.0317
      5 C5          2.3670   29.5530    4.7800 C.2       1 R18         0.0323
      6 C6          2.9730   30.9060    5.1160 C.3       1 R18         0.0007
      7 C7          2.2070   32.0300    4.4570 C.3       1 R18        -0.0278
      8 C8          0.7330   31.9620    4.8980 C.3       1 R18        -0.0038
      9 C9          0.1240   30.5970    4.5140 C.2       1 R18         0.0320
     10 C10         0.9120   29.4800    4.4760 C.2       1 R18         0.0433
     11 C11        -1.3160   30.5830    4.2510 C.2       1 R18        -0.0301
     12 C12        -2.1020   31.6750    4.3100 C.2       1 R18        -0.1332
     13 C13        -1.5350   33.0390    4.6640 C.3       1 R18        -0.0815
     14 C14        -0.0560   33.0660    4.2610 C.3       1 R18        -0.0842
     15 C15         0.3870   34.5090    4.5720 C.3       1 R18        -0.0641
     16 C16        -0.8990   35.2990    4.3110 C.3       1 R18        -0.0430
     17 C17        -2.0010   34.2820    3.9000 C.3       1 R18         0.0069
     18 C18        -1.7250   33.2280    6.1890 C.3       1 R18        -0.1225
     19 C27        -2.0340   34.0500    2.4120 C.3       1 R18        -0.0538
     20 O83         3.3750   26.2120    4.1620 O.2       1 R18        -0.3705
     21 O97        -3.2570   34.7970    4.3450 O.3       1 R18        -0.4088
     22 H1         -0.6492   27.9832    4.3714 H         1 R18         0.0591
     23 H2          0.5317   27.9238    3.0191 H         1 R18         0.0591
     24 H3          0.8493   26.0080    4.5030 H         1 R18         0.0523
     25 H4          1.0329   27.1030    5.9150 H         1 R18         0.0523
     26 H5          4.2344   28.5809    5.0090 H         1 R18         0.0908
     27 H6          4.0153   30.9289    4.7651 H         1 R18         0.0464
     28 H7          2.9500   31.0480    6.2065 H         1 R18         0.0464
     29 H8          2.2694   31.9268    3.3636 H         1 R18         0.0316
     30 H9          2.6376   32.9960    4.7593 H         1 R18         0.0316
     31 H10         0.6859   32.0775    5.9909 H         1 R18         0.0468
     32 H11        -1.7796   29.6323    3.9920 H         1 R18         0.1039
     33 H12        -3.1661   31.5781    4.0996 H         1 R18         0.0414
     34 H13         0.0200   32.9141    3.1742 H         1 R18         0.0107
     35 H14         1.1974   34.8317    3.9019 H         1 R18         0.0253
     36 H15         0.7134   34.6105    5.6175 H         1 R18         0.0253
     37 H16        -0.7359   36.0235    3.4995 H         1 R18         0.0274
     38 H17        -1.2029   35.8328    5.2235 H         1 R18         0.0274
     39 H18        -1.3842   32.3244    6.7157 H         1 R18         0.0009
     40 H19        -2.7893   33.4002    6.4074 H         1 R18         0.0009
     41 H20        -1.1365   34.0935    6.5274 H         1 R18         0.0009
     42 H21        -2.8265   33.3261    2.1713 H         1 R18         0.0239
     43 H22        -1.0627   33.6538    2.0810 H         1 R18         0.0239
     44 H23        -2.2370   35.0006    1.8971 H         1 R18         0.0239
     45 H24        -3.9490   34.1919    4.1052 H         1 R18         0.2077
@<TRIPOS>BOND
     1    1    2 1  
     2    1   10 1  
     3    2    3 1  
     4    3    4 1  
     5    3   20 2  
     6    4    5 2  
     7    5    6 1  
     8    5   10 1  
     9    6    7 1  
    10    7    8 1  
    11    8    9 1  
    12    8   14 1  
    13    9   10 2  
    14    9   11 1  
    15   11   12 2  
    16   12   13 1  
    17   13   14 1  
    18   13   17 1  
    19   13   18 1  
    20   14   15 1  
    21   15   16 1  
    22   16   17 1  
    23   17   19 1  
    24   17   21 1  
    25    1   22 1  
    26    1   23 1  
    27    2   24 1  
    28    2   25 1  
    29    4   26 1  
    30    6   27 1  
    31    6   28 1  
    32    7   29 1  
    33    7   30 1  
    34    8   31 1  
    35   11   32 1  
    36   12   33 1  
    37   14   34 1  
    38   15   35 1  
    39   15   36 1  
    40   16   37 1  
    41   16   38 1  
    42   18   39 1  
    43   18   40 1  
    44   18   41 1  
    45   19   42 1  
    46   19   43 1  
    47   19   44 1  
    48   21   45 1  
@<TRIPOS>SUBSTRUCTURE
     1 R18         1

