### 
### Created by X-TOOL on Mon Sep 10 21:12:48 2018
### 

@<TRIPOS>MOLECULE
1e3v_ligand
   67    70     1     0     0
SMALL
GAST_HUCK


@<TRIPOS>ATOM
      1 C1          4.8530   -3.5000   84.8790 C.3       1 DXC         0.0555
      2 C2          3.8190   -4.1940   83.9850 C.3       1 DXC        -0.0235
      3 C3          2.4560   -4.3450   84.6990 C.3       1 DXC        -0.0330
      4 C4          2.5860   -5.0840   86.0690 C.3       1 DXC        -0.0259
      5 C5          3.6330   -4.3160   86.9230 C.3       1 DXC        -0.0448
      6 C6          5.0020   -4.2480   86.2280 C.3       1 DXC        -0.0263
      7 C7          1.4380   -5.0580   83.7720 C.3       1 DXC        -0.0494
      8 C8          1.7720   -6.5490   83.5890 C.3       1 DXC        -0.0494
      9 C9          1.9340   -7.2910   84.9280 C.3       1 DXC        -0.0342
     10 C10         2.9990   -6.5880   85.8200 C.3       1 DXC        -0.0299
     11 C11         2.3590   -8.7630   84.7180 C.3       1 DXC        -0.0299
     12 C12         2.5170   -9.5400   86.0420 C.3       1 DXC         0.0001
     13 C13         3.5660   -8.8710   86.9500 C.3       1 DXC         0.0614
     14 C14         3.1550   -7.3830   87.1570 C.3       1 DXC        -0.0227
     15 C15         1.5170   -9.6960   83.8400 C.3       1 DXC        -0.0491
     16 C16         1.8870  -11.1160   84.3090 C.3       1 DXC        -0.0491
     17 C17         2.9060  -10.9290   85.4540 C.3       1 DXC        -0.0303
     18 C18         1.2480   -5.0530   86.8530 C.3       1 DXC        -0.0590
     19 C19         2.9680  -12.1840   86.3940 C.3       1 DXC        -0.0390
     20 O1          4.8440   -8.9610   86.3340 O.3       1 DXC        -0.3912
     21 O2          6.0610   -3.3990   84.1510 O.3       1 DXC        -0.3918
     22 C20         1.1760   -9.6220   86.8150 C.3       1 DXC        -0.0567
     23 C21         3.3500  -13.4460   85.5780 C.3       1 DXC        -0.0386
     24 C22         4.7310  -13.4140   84.9230 C.3       1 DXC         0.0004
     25 C23         4.6260  -14.0460   83.5410 C.2       1 DXC         0.0348
     26 O3          4.7740  -13.4660   82.5160 O.co2     1 DXC        -0.5690
     27 O4          4.3460  -15.3480   83.6050 O.co2     1 DXC        -0.5690
     28 C24         3.9780  -12.0070   87.5370 C.3       1 DXC        -0.0620
     29 H1          4.5009   -2.4818   85.1007 H         1 DXC         0.0593
     30 H2          4.1932   -5.1928   83.7161 H         1 DXC         0.0293
     31 H3          3.6789   -3.5968   83.0719 H         1 DXC         0.0293
     32 H4          2.0738   -3.3342   84.9044 H         1 DXC         0.0307
     33 H5          3.7498   -4.8296   87.8887 H         1 DXC         0.0271
     34 H6          3.2700   -3.2918   87.0940 H         1 DXC         0.0271
     35 H7          5.7142   -3.7094   86.8704 H         1 DXC         0.0290
     36 H8          5.3722   -5.2674   86.0443 H         1 DXC         0.0290
     37 H9          1.4502   -4.5678   82.7874 H         1 DXC         0.0268
     38 H10         0.4340   -4.9704   84.2129 H         1 DXC         0.0268
     39 H11         0.9596   -7.0241   83.0196 H         1 DXC         0.0268
     40 H12         2.7126   -6.6321   83.0247 H         1 DXC         0.0268
     41 H13         0.9660   -7.2752   85.4502 H         1 DXC         0.0306
     42 H14         3.9653   -6.5980   85.2945 H         1 DXC         0.0310
     43 H15         3.3492   -8.7015   84.2429 H         1 DXC         0.0310
     44 H16         3.5955   -9.3818   87.9237 H         1 DXC         0.0599
     45 H17         2.1937   -7.3583   87.6911 H         1 DXC         0.0293
     46 H18         3.9263   -6.8903   87.7672 H         1 DXC         0.0293
     47 H19         1.7688   -9.5607   82.7778 H         1 DXC         0.0268
     48 H20         0.4440   -9.5056   83.9897 H         1 DXC         0.0268
     49 H21         0.9935  -11.6438   84.6738 H         1 DXC         0.0268
     50 H22         2.3384  -11.6864   83.4839 H         1 DXC         0.0268
     51 H23         3.9134  -10.8315   85.0232 H         1 DXC         0.0310
     52 H24         0.4755   -5.5881   86.2812 H         1 DXC         0.0235
     53 H25         0.9354   -4.0092   87.0037 H         1 DXC         0.0235
     54 H26         1.3841   -5.5397   87.8300 H         1 DXC         0.0235
     55 H27         1.9702  -12.3333   86.8323 H         1 DXC         0.0302
     56 H28         5.4930   -8.5490   86.8921 H         1 DXC         0.2098
     57 H29         5.9020   -2.9324   83.3389 H         1 DXC         0.2098
     58 H30         0.4149  -10.0981   86.1793 H         1 DXC         0.0236
     59 H31         0.8459   -8.6081   87.0852 H         1 DXC         0.0236
     60 H32         1.3154  -10.2180   87.7289 H         1 DXC         0.0236
     61 H33         2.6009  -13.5749   84.7829 H         1 DXC         0.0286
     62 H34         3.3170  -14.3111   86.2566 H         1 DXC         0.0286
     63 H35         5.4460  -13.9814   85.5369 H         1 DXC         0.0430
     64 H36         5.0732  -12.3728   84.8296 H         1 DXC         0.0430
     65 H37         3.7159  -11.1136   88.1228 H         1 DXC         0.0233
     66 H38         4.9882  -11.8877   87.1185 H         1 DXC         0.0233
     67 H39         3.9533  -12.8929   88.1886 H         1 DXC         0.0233
@<TRIPOS>BOND
     1    1   21 1  
     2    1    6 1  
     3    1    2 1  
     4    2    3 1  
     5    3    7 1  
     6    3    4 1  
     7    4   18 1  
     8    4   10 1  
     9    4    5 1  
    10    5    6 1  
    11   10   14 1  
    12   10    9 1  
    13    9   11 1  
    14    9    8 1  
    15    8    7 1  
    16   11   15 1  
    17   11   12 1  
    18   12   22 1  
    19   12   17 1  
    20   12   13 1  
    21   13   20 1  
    22   13   14 1  
    23   17   19 1  
    24   17   16 1  
    25   16   15 1  
    26   19   28 1  
    27   19   23 1  
    28   23   24 1  
    29   24   25 1  
    30   25   27 ar 
    31   25   26 ar 
    32    1   29 1  
    33    2   30 1  
    34    2   31 1  
    35    3   32 1  
    36    5   33 1  
    37    5   34 1  
    38    6   35 1  
    39    6   36 1  
    40    7   37 1  
    41    7   38 1  
    42    8   39 1  
    43    8   40 1  
    44    9   41 1  
    45   10   42 1  
    46   11   43 1  
    47   13   44 1  
    48   14   45 1  
    49   14   46 1  
    50   15   47 1  
    51   15   48 1  
    52   16   49 1  
    53   16   50 1  
    54   17   51 1  
    55   18   52 1  
    56   18   53 1  
    57   18   54 1  
    58   19   55 1  
    59   20   56 1  
    60   21   57 1  
    61   22   58 1  
    62   22   59 1  
    63   22   60 1  
    64   23   61 1  
    65   23   62 1  
    66   24   63 1  
    67   24   64 1  
    68   28   65 1  
    69   28   66 1  
    70   28   67 1  
@<TRIPOS>SUBSTRUCTURE
     1 DXC         1

