### 
### Created by X-TOOL on Fri Nov 18 12:35:49 2016
### 

@<TRIPOS>MOLECULE
1e4h_ligand
   13    13     1     0     0
SMALL
GAST_HUCK


@<TRIPOS>ATOM
      1 O1         43.0000    0.0000   29.2030 O.3       1 PBR        -0.3257
      2 C1         41.9070    0.5050   27.1740 C.ar      1 PBR         0.0584
      3 C2         41.8980    0.5160   25.7600 C.ar      1 PBR         0.0292
      4 C3         43.0000    0.0000   25.0470 C.ar      1 PBR         0.0260
      5 C4         44.1000   -0.5160   25.7600 C.ar      1 PBR         0.0292
      6 C5         44.0900   -0.5050   27.1740 C.ar      1 PBR         0.0584
      7 C6         43.0000    0.0000   27.8680 C.ar      1 PBR         0.1160
      8 BR1        40.4450    1.1990   28.1520 Br        1 PBR        -0.0512
      9 BR2        40.4120    1.2290   24.8260 Br        1 PBR        -0.0440
     10 BR3        43.0000    0.0000   23.1510 Br        1 PBR        -0.0531
     11 BR4        45.5900   -1.2290   24.8260 Br        1 PBR        -0.0440
     12 BR5        45.5600   -1.1990   28.1520 Br        1 PBR        -0.0512
     13 H1         43.8134   -0.3758   29.5185 H         1 PBR         0.2521
@<TRIPOS>BOND
     1    7    1 1  
     2    2    3 ar 
     3    2    7 ar 
     4    2    8 1  
     5    3    4 ar 
     6    3    9 1  
     7    4    5 ar 
     8    4   10 1  
     9    5    6 ar 
    10    5   11 1  
    11    6    7 ar 
    12    6   12 1  
    13    1   13 1  
@<TRIPOS>SUBSTRUCTURE
     1 PBR         1

