### 
### Created by X-TOOL on Mon Sep 10 21:12:47 2018
### 

@<TRIPOS>MOLECULE
1e55_ligand
   39    40     1     0     0
SMALL
GAST_HUCK


@<TRIPOS>ATOM
      1 C1         28.6480    2.5650   28.3710 C.3       1 BGC         0.1926
      2 C2         27.2640    2.6920   27.6890 C.3       1 BGC         0.1344
      3 C3         26.6360    1.3540   27.2770 C.3       1 BGC         0.1141
      4 C4         27.6620    0.4020   26.6740 C.3       1 BGC         0.1119
      5 C5         28.8360    0.2800   27.6270 C.3       1 BGC         0.1130
      6 C6         29.8860   -0.6930   27.1320 C.3       1 BGC         0.0730
      7 O1         29.8680    4.2880   27.6670 O.3       1 BGC        -0.3090
      8 O2         26.3670    3.3300   28.5890 O.3       1 BGC        -0.3841
      9 O3         25.5920    1.5870   26.3390 O.3       1 BGC        -0.3864
     10 O4         27.0690   -0.8630   26.4820 O.3       1 BGC        -0.3865
     11 O5         29.4760    1.5600   27.7490 O.3       1 BGC        -0.3403
     12 O6         29.3720   -1.5230   26.1010 O.3       1 BGC        -0.3924
     13 N2         30.7560    5.7550   30.2570 N.1       1 DHR        -0.2985
     14 C2         31.0770    4.9880   29.4290 C.1       1 DHR         0.1343
     15 C3         32.8530    4.1350   27.8930 C.ar      1 DHR         0.0012
     16 C4         33.3070    3.3310   26.8350 C.ar      1 DHR        -0.0642
     17 C8         33.7270    4.9990   28.5930 C.ar      1 DHR        -0.0642
     18 C7         35.0780    5.0510   28.2180 C.ar      1 DHR        -0.0397
     19 C5         34.6720    3.3930   26.4630 C.ar      1 DHR        -0.0397
     20 C6         35.5590    4.2530   27.1580 C.ar      1 DHR         0.0805
     21 O6         36.8870    4.3210   26.8030 O.3       1 DHR        -0.3376
     22 C1         31.3380    4.0250   28.2930 C.3       1 DHR         0.2138
     23 H1         28.5598    2.4633   29.4627 H         1 BGC         0.0940
     24 H2         27.3819    3.3115   26.7877 H         1 BGC         0.0671
     25 H3         26.2092    0.8807   28.1736 H         1 BGC         0.0648
     26 H4         28.0101    0.7952   25.7075 H         1 BGC         0.0647
     27 H5         28.4660   -0.0515   28.6084 H         1 BGC         0.0647
     28 H6         30.2138   -1.3245   27.9709 H         1 BGC         0.0584
     29 H7         30.7445   -0.1266   26.7420 H         1 BGC         0.0584
     30 H8         25.5342    3.4745   28.1552 H         1 BGC         0.2101
     31 H9         24.9542    2.1806   26.7177 H         1 BGC         0.2100
     32 H10        27.7108   -1.4600   26.1158 H         1 BGC         0.2100
     33 H11        30.0500   -2.1216   25.8103 H         1 BGC         0.2095
     34 H12        32.6231    2.6730   26.3111 H         1 BGC         0.0532
     35 H13        33.3584    5.6121   29.4074 H         1 BGC         0.0532
     36 H14        35.7578    5.7094   28.7467 H         1 BGC         0.0525
     37 H15        35.0389    2.7823   25.6460 H         1 BGC         0.0525
     38 H16        37.2833    3.4629   26.8980 H         1 BGC         0.2458
     39 H17        31.2885    2.9842   28.6454 H         1 BGC         0.1048
@<TRIPOS>BOND
     1    1    2 1  
     2    1   11 1  
     3    2    3 1  
     4    2    8 1  
     5    3    4 1  
     6    3    9 1  
     7    5    4 1  
     8    4   10 1  
     9    5    6 1  
    10   11    5 1  
    11    6   12 1  
    12    7   22 1  
    13   14   13 3  
    14   22   14 1  
    15   15   16 ar 
    16   15   17 ar 
    17   22   15 1  
    18   16   19 ar 
    19   17   18 ar 
    20   18   20 ar 
    21   19   20 ar 
    22   20   21 1  
    23    7    1 1  
    24    1   23 1  
    25    2   24 1  
    26    3   25 1  
    27    4   26 1  
    28    5   27 1  
    29    6   28 1  
    30    6   29 1  
    31    8   30 1  
    32    9   31 1  
    33   10   32 1  
    34   12   33 1  
    35   16   34 1  
    36   17   35 1  
    37   18   36 1  
    38   19   37 1  
    39   21   38 1  
    40   22   39 1  
@<TRIPOS>SUBSTRUCTURE
     1 BGC         1

