### 
### Created by X-TOOL on Mon Sep 10 21:12:48 2018
### 

@<TRIPOS>MOLECULE
1e5j_ligand
   90    93     1     0     0
SMALL
GAST_HUCK


@<TRIPOS>ATOM
      1 C1         -4.3970   42.7460   12.1070 C.3       1 GLC         0.1334
      2 C2         -5.6310   41.8700   11.7410 C.3       1 GLC         0.1189
      3 C3         -6.8920   42.7020   11.7810 C.3       1 GLC         0.1126
      4 C4         -7.0630   43.4260   13.1010 C.3       1 GLC         0.1118
      5 C5         -5.7690   44.2330   13.3560 C.3       1 GLC         0.1115
      6 C6         -5.8860   44.9020   14.7230 C.3       1 GLC         0.0730
      7 O2         -5.4420   41.5210   10.3790 O.3       1 GLC        -0.3857
      8 O3         -7.9760   41.7910   11.6160 O.3       1 GLC        -0.3865
      9 O4         -8.2030   44.3080   13.1040 O.3       1 GLC        -0.3865
     10 O5         -4.6740   43.3550   13.3280 O.3       1 GLC        -0.3553
     11 O6         -5.8610   43.9760   15.7510 O.3       1 GLC        -0.3924
     12 C1          1.1760   43.5660   12.0220 C.3       1 SGC         0.1333
     13 C2          0.5050   43.6790   13.3910 C.3       1 SGC         0.1175
     14 O2          1.5000   43.3790   14.3780 O.3       1 SGC        -0.3858
     15 C3         -0.7020   42.7160   13.4170 C.3       1 SGC         0.0986
     16 O3         -1.4380   42.8890   14.6180 O.3       1 SGC        -0.3879
     17 C4         -1.5900   43.0010   12.2230 C.3       1 SGC         0.0645
     18 C5         -0.8360   42.9720   10.8910 C.3       1 SGC         0.0975
     19 O5          0.2740   43.9040   10.9880 O.3       1 SGC        -0.3567
     20 C6         -1.6690   43.4320    9.6550 C.3       1 SGC         0.0716
     21 O6         -2.2280   44.7130    9.8860 O.3       1 SGC        -0.3924
     22 S4         -2.9160   41.7240   12.1240 S.3       1 SGC        -0.1184
     23 C1          4.4160   41.1710    8.2230 C.3       1 SGC         0.1883
     24 C2          4.3140   42.6680    8.5150 C.3       1 SGC         0.1327
     25 O2          5.5680   43.2660    8.3900 O.3       1 SGC        -0.3842
     26 C3          3.8000   42.8670    9.9380 C.3       1 SGC         0.1001
     27 O3          3.5220   44.2080   10.0500 O.3       1 SGC        -0.3879
     28 C4          2.5000   42.0300   10.1240 C.3       1 SGC         0.0646
     29 C5          2.6960   40.5570    9.7250 C.3       1 SGC         0.0990
     30 O5          3.1930   40.5490    8.4030 O.3       1 SGC        -0.3420
     31 C6          1.4230   39.6900    9.7360 C.3       1 SGC         0.0716
     32 O6          0.3700   40.3750    9.0640 O.3       1 SGC        -0.3924
     33 S4          2.1010   42.0550   11.8830 S.3       1 SGC        -0.1184
     34 C1          6.2800   37.7230    4.7570 C.3       1 MGL         0.1876
     35 C2          4.9060   37.5280    5.3620 C.3       1 MGL         0.1341
     36 C3          4.3370   38.8920    5.7570 C.3       1 MGL         0.1144
     37 C4          5.3040   39.6830    6.6110 C.3       1 MGL         0.1184
     38 C5          6.6880   39.7830    5.9750 C.3       1 MGL         0.1134
     39 C6          7.6520   40.2690    7.0820 C.3       1 MGL         0.0730
     40 C7          7.9700   36.6670    3.3870 C.3       1 MGL         0.0395
     41 O1          6.7860   36.5330    4.1800 O.3       1 MGL        -0.3520
     42 O2          3.9580   36.9810    4.4430 O.3       1 MGL        -0.3841
     43 O3          3.1580   38.6180    6.4860 O.3       1 MGL        -0.3864
     44 O4          4.8000   40.9830    6.8720 O.3       1 MGL        -0.3401
     45 O5          7.1370   38.5070    5.5470 O.3       1 MGL        -0.3405
     46 O6          8.9190   40.5520    6.3470 O.3       1 MGL        -0.3924
     47 H1         -4.2642   43.5291   11.3460 H         1 GLC         0.0740
     48 H2         -5.7100   40.9887   12.3945 H         1 GLC         0.0655
     49 H3         -6.8786   43.4371   10.9628 H         1 GLC         0.0647
     50 H4         -7.1957   42.6832   13.9014 H         1 GLC         0.0647
     51 H5         -5.6447   45.0005   12.5779 H         1 GLC         0.0646
     52 H6         -6.8340   45.4581   14.7675 H         1 GLC         0.0584
     53 H7         -5.0452   45.5996   14.8514 H         1 GLC         0.0584
     54 H8         -5.3506   42.3116    9.8604 H         1 GLC         0.2100
     55 H9         -7.8788   41.3310   10.7905 H         1 GLC         0.2100
     56 H10        -8.1001   44.9590   12.4198 H         1 GLC         0.2100
     57 H11        -5.0424   43.4949   15.7225 H         1 GLC         0.2095
     58 H12         1.9384   44.3583   11.9924 H         1 GLC         0.0740
     59 H13         0.1424   44.7053   13.5498 H         1 GLC         0.0654
     60 H14         1.1141   43.4405   15.2440 H         1 GLC         0.2100
     61 H15        -0.3403   41.6786   13.3622 H         1 GLC         0.0632
     62 H16        -0.8760   42.7056   15.3617 H         1 GLC         0.2099
     63 H17        -2.0425   43.9949   12.3550 H         1 GLC         0.0465
     64 H18        -0.4679   41.9502   10.7165 H         1 GLC         0.0631
     65 H19        -2.4791   42.7101    9.4747 H         1 GLC         0.0583
     66 H20        -1.0140   43.4761    8.7724 H         1 GLC         0.0583
     67 H21        -1.5300   45.3388   10.0399 H         1 GLC         0.2095
     68 H22         5.1629   40.7193    8.8923 H         1 GLC         0.0938
     69 H23         3.6157   43.1324    7.8032 H         1 GLC         0.0670
     70 H24         5.8903   43.1412    7.5050 H         1 GLC         0.2101
     71 H25         4.5556   42.5625   10.6772 H         1 GLC         0.0633
     72 H26         4.3146   44.7085    9.8957 H         1 GLC         0.2099
     73 H27         1.6848   42.4711    9.5317 H         1 GLC         0.0465
     74 H28         3.4300   40.1058   10.4089 H         1 GLC         0.0632
     75 H29         1.1248   39.4914   10.7760 H         1 GLC         0.0583
     76 H30         1.6248   38.7375    9.2241 H         1 GLC         0.0583
     77 H31         0.6276   40.5460    8.1657 H         1 GLC         0.2095
     78 H32         6.0983   38.3655    3.8829 H         1 GLC         0.0937
     79 H33         4.9914   36.8738    6.2422 H         1 GLC         0.0671
     80 H34         4.0994   39.4732    4.8538 H         1 GLC         0.0648
     81 H35         5.4102   39.1567    7.5711 H         1 GLC         0.0651
     82 H36         6.6718   40.4850    5.1283 H         1 GLC         0.0647
     83 H37         7.8047   39.4871    7.8405 H         1 GLC         0.0584
     84 H38         7.2673   41.1790    7.5657 H         1 GLC         0.0584
     85 H39         8.2630   35.6814    2.9962 H         1 GLC         0.0525
     86 H40         8.7830   37.0719    4.0075 H         1 GLC         0.0525
     87 H41         7.7739   37.3506    2.5478 H         1 GLC         0.0525
     88 H42         3.1188   36.8818    4.8770 H         1 GLC         0.2101
     89 H43         2.7587   39.4356    6.7592 H         1 GLC         0.2100
     90 H44         9.5768   40.8604    6.9591 H         1 GLC         0.2095
@<TRIPOS>BOND
     1    1    2 1  
     2    1   10 1  
     3    2    3 1  
     4    2    7 1  
     5    3    4 1  
     6    3    8 1  
     7    5    4 1  
     8    4    9 1  
     9    5    6 1  
    10   10    5 1  
    11    6   11 1  
    12   12   13 1  
    13   12   19 1  
    14   13   14 1  
    15   13   15 1  
    16   15   16 1  
    17   15   17 1  
    18   18   17 1  
    19   17   22 1  
    20   19   18 1  
    21   18   20 1  
    22   20   21 1  
    23   22    1 1  
    24   23   24 1  
    25   23   30 1  
    26   24   25 1  
    27   24   26 1  
    28   26   27 1  
    29   26   28 1  
    30   29   28 1  
    31   28   33 1  
    32   30   29 1  
    33   29   31 1  
    34   31   32 1  
    35   33   12 1  
    36   34   41 1  
    37   45   34 1  
    38   35   34 1  
    39   35   42 1  
    40   36   35 1  
    41   36   43 1  
    42   37   36 1  
    43   44   37 1  
    44   37   38 1  
    45   38   45 1  
    46   38   39 1  
    47   39   46 1  
    48   44   23 1  
    49   41   40 1  
    50    1   47 1  
    51    2   48 1  
    52    3   49 1  
    53    4   50 1  
    54    5   51 1  
    55    6   52 1  
    56    6   53 1  
    57    7   54 1  
    58    8   55 1  
    59    9   56 1  
    60   11   57 1  
    61   12   58 1  
    62   13   59 1  
    63   14   60 1  
    64   15   61 1  
    65   16   62 1  
    66   17   63 1  
    67   18   64 1  
    68   20   65 1  
    69   20   66 1  
    70   21   67 1  
    71   23   68 1  
    72   24   69 1  
    73   25   70 1  
    74   26   71 1  
    75   27   72 1  
    76   28   73 1  
    77   29   74 1  
    78   31   75 1  
    79   31   76 1  
    80   32   77 1  
    81   34   78 1  
    82   35   79 1  
    83   36   80 1  
    84   37   81 1  
    85   38   82 1  
    86   39   83 1  
    87   39   84 1  
    88   40   85 1  
    89   40   86 1  
    90   40   87 1  
    91   42   88 1  
    92   43   89 1  
    93   46   90 1  
@<TRIPOS>SUBSTRUCTURE
     1 GLC         1

