### 
### Created by X-TOOL on Mon Sep 10 21:12:48 2018
### 

@<TRIPOS>MOLECULE
1e6q_ligand
   25    26     1     0     0
SMALL
GAST_HUCK


@<TRIPOS>ATOM
      1 C1         47.2990  119.6880   52.4890 C.2       1 NTZ         0.2868
      2 C2         47.9890  119.0190   53.7220 C.3       1 NTZ         0.2077
      3 C3         48.3800  120.1170   54.6950 C.3       1 NTZ         0.1433
      4 C4         48.7990  121.3860   53.8640 C.3       1 NTZ         0.1241
      5 C5         47.4990  122.0130   53.2580 C.3       1 NTZ         0.1587
      6 C6         47.5630  123.3470   52.5210 C.3       1 NTZ         0.0791
      7 N1         47.0410  121.0280   52.3800 N.2       1 NTZ        -0.1056
      8 N17        46.4490  121.2260   51.1460 N.pl3     1 NTZ        -0.0183
      9 N18        46.3030  119.9280   50.5630 N.2       1 NTZ         0.0512
     10 N21        46.8560  119.1080   51.3610 N.2       1 NTZ        -0.0623
     11 O2         47.2650  117.9570   54.4010 O.3       1 NTZ        -0.3457
     12 O3         49.4810  119.5720   55.4220 O.3       1 NTZ        -0.3793
     13 O4         49.3720  122.3640   54.7470 O.3       1 NTZ        -0.3855
     14 O6         48.4570  123.1810   51.3730 O.3       1 NTZ        -0.3920
     15 H1         48.9152  118.5588   53.3473 H         1 NTZ         0.1191
     16 H2         47.5513  120.3683   55.3733 H         1 NTZ         0.0727
     17 H3         49.5113  121.1121   53.0718 H         1 NTZ         0.0657
     18 H4         46.7799  122.1443   54.0800 H         1 NTZ         0.0717
     19 H5         47.9550  124.1264   53.1910 H         1 NTZ         0.0588
     20 H6         46.5585  123.6321   52.1750 H         1 NTZ         0.0588
     21 H7         46.1697  122.1262   50.7307 H         1 NTZ         0.3397
     22 H8         46.4764  118.3133   54.7929 H         1 NTZ         0.2210
     23 H9         49.8164  120.2260   56.0240 H         1 NTZ         0.2108
     24 H10        49.5778  123.1506   54.2557 H         1 NTZ         0.2100
     25 H11        49.3208  122.9311   51.6793 H         1 NTZ         0.2095
@<TRIPOS>BOND
     1    1    2 1  
     2    1    7 2  
     3    1   10 1  
     4    2    3 1  
     5    2   11 1  
     6    3    4 1  
     7    3   12 1  
     8    4    5 1  
     9    4   13 1  
    10    5    6 1  
    11    5    7 1  
    12    6   14 1  
    13    7    8 1  
    14    8    9 1  
    15    9   10 2  
    16    2   15 1  
    17    3   16 1  
    18    4   17 1  
    19    5   18 1  
    20    6   19 1  
    21    6   20 1  
    22    8   21 1  
    23   11   22 1  
    24   12   23 1  
    25   13   24 1  
    26   14   25 1  
@<TRIPOS>SUBSTRUCTURE
     1 NTZ         1

