### 
### Created by X-TOOL on Mon Sep 10 21:12:47 2018
### 

@<TRIPOS>MOLECULE
1e6s_ligand
   25    25     1     0     0
SMALL
GAST_HUCK


@<TRIPOS>ATOM
      1 C1         46.8710  119.8910   52.8440 C.2       1 GOX         0.1322
      2 N1         46.1800  119.1010   52.0130 N.2       1 GOX        -0.2068
      3 O7         45.5120  119.5680   50.9830 O.3       1 GOX        -0.3046
      4 C2         47.7520  119.2200   53.9100 C.3       1 GOX         0.1503
      5 O2         47.1990  118.0540   54.5300 O.3       1 GOX        -0.3713
      6 C3         48.2490  120.2590   54.8890 C.3       1 GOX         0.1233
      7 O3         49.3470  119.6490   55.5640 O.3       1 GOX        -0.3841
      8 C4         48.6480  121.5070   54.0620 C.3       1 GOX         0.1104
      9 O4         49.2900  122.4630   54.9070 O.3       1 GOX        -0.3866
     10 C5         47.3120  122.1730   53.5720 C.3       1 GOX         0.0898
     11 N5         46.7140  121.2240   52.6400 N.pl3     1 GOX        -0.2990
     12 C6         47.4060  123.4560   52.7730 C.3       1 GOX         0.0694
     13 O6         48.1870  123.2780   51.5780 O.3       1 GOX        -0.3927
     14 H1         45.0942  118.8480   50.5251 H         1 GOX         0.2523
     15 H2         48.6420  118.8584   53.3742 H         1 GOX         0.0843
     16 H3         46.3848  118.2828   54.9627 H         1 GOX         0.2137
     17 H4         47.4674  120.5306   55.6137 H         1 GOX         0.0673
     18 H5         49.7054  120.2585   56.1984 H         1 GOX         0.2103
     19 H6         49.2959  121.2287   53.2177 H         1 GOX         0.0646
     20 H7         49.5319  123.2252   54.3942 H         1 GOX         0.2100
     21 H8         46.6646  122.3430   54.4449 H         1 GOX         0.0603
     22 H9         46.1750  121.5635   51.8306 H         1 GOX         0.1812
     23 H10        47.8772  124.2309   53.3955 H         1 GOX         0.0581
     24 H11        46.3921  123.7773   52.4925 H         1 GOX         0.0581
     25 H12        49.0660  123.0049   51.8132 H         1 GOX         0.2095
@<TRIPOS>BOND
     1    1    2 2  
     2    1    4 1  
     3    1   11 1  
     4    2    3 1  
     5    4    5 1  
     6    4    6 1  
     7    6    7 1  
     8    6    8 1  
     9    8    9 1  
    10    8   10 1  
    11   10   11 1  
    12   10   12 1  
    13   12   13 1  
    14    3   14 1  
    15    4   15 1  
    16    5   16 1  
    17    6   17 1  
    18    7   18 1  
    19    8   19 1  
    20    9   20 1  
    21   10   21 1  
    22   11   22 1  
    23   12   23 1  
    24   12   24 1  
    25   13   25 1  
@<TRIPOS>SUBSTRUCTURE
     1 GOX         1

