### 
### Created by X-TOOL on Mon Sep 10 21:12:48 2018
### 

@<TRIPOS>MOLECULE
1e72_ligand
   26    26     1     0     0
SMALL
GAST_HUCK


@<TRIPOS>ATOM
      1 C1         46.7020  119.7400   53.1760 C.cat     1 GOX         0.2319
      2 N1         46.2750  118.9950   52.1470 N.pl3     1 GOX        -0.0667
      3 C2         47.7740  119.0850   54.0360 C.3       1 GOX         0.1449
      4 N5         46.6980  121.0720   52.8070 N.pl3     1 GOX        -0.2923
      5 O7         45.6150  119.4710   51.1010 O.3       1 GOX        -0.1073
      6 O2         47.1030  117.9310   54.5760 O.3       1 GOX        -0.3879
      7 C3         48.2040  120.2250   54.9390 C.3       1 GOX         0.1116
      8 O3         49.3070  119.6210   55.6010 O.3       1 GOX        -0.3869
      9 C4         48.6440  121.4580   54.0870 C.3       1 GOX         0.1152
     10 O4         49.2470  122.4450   54.9200 O.3       1 GOX        -0.3859
     11 C5         47.2400  122.1220   53.6360 C.3       1 GOX         0.1075
     12 C6         47.2410  123.3410   52.7700 C.3       1 GOX         0.0769
     13 O6         48.1270  123.2430   51.5990 O.3       1 GOX        -0.3918
     14 H1         46.4731  117.9845   52.1707 H         1 GOX         0.3852
     15 H2         48.6409  118.7480   53.4488 H         1 GOX         0.0625
     16 H3         46.2887  121.3276   51.8970 H         1 GOX         0.2256
     17 H4         45.4174  118.7602   50.5024 H         1 GOX         0.4009
     18 H5         46.3507  118.2121   55.0834 H         1 GOX         0.2094
     19 H6         47.4124  120.5191   55.6439 H         1 GOX         0.0643
     20 H7         49.6843  120.2403   56.2147 H         1 GOX         0.2100
     21 H8         49.2899  121.1750   53.2428 H         1 GOX         0.0652
     22 H9         49.5094  123.1882   54.3895 H         1 GOX         0.2100
     23 H10        46.6241  122.3205   54.5255 H         1 GOX         0.0702
     24 H11        47.5661  124.1975   53.3788 H         1 GOX         0.0590
     25 H12        46.2146  123.5129   52.4136 H         1 GOX         0.0590
     26 H13        49.0206  123.1046   51.8901 H         1 GOX         0.2095
@<TRIPOS>BOND
     1    1    2 ar 
     2    1    3 1  
     3    1    4 ar 
     4    2    5 1  
     5    3    6 1  
     6    3    7 1  
     7    4   11 1  
     8    7    8 1  
     9    7    9 1  
    10    9   10 1  
    11    9   11 1  
    12   11   12 1  
    13   12   13 1  
    14    2   14 1  
    15    3   15 1  
    16    4   16 1  
    17    5   17 1  
    18    6   18 1  
    19    7   19 1  
    20    8   20 1  
    21    9   21 1  
    22   10   22 1  
    23   11   23 1  
    24   12   24 1  
    25   12   25 1  
    26   13   26 1  
@<TRIPOS>SUBSTRUCTURE
     1 GOX         1

