### 
### Created by X-TOOL on Mon Sep 10 21:12:48 2018
### 

@<TRIPOS>MOLECULE
1e9h_ligand
   33    36     1     0     0
SMALL
GAST_HUCK


@<TRIPOS>ATOM
      1 C1          5.4790   42.2880   49.5910 C.ar      1 INR         0.0819
      2 C2          4.4740   42.6430   50.5070 C.ar      1 INR         0.0595
      3 C3          3.1850   42.0410   50.4880 C.ar      1 INR        -0.0541
      4 C4          2.9390   41.0520   49.4890 C.ar      1 INR        -0.0680
      5 C5          3.9620   40.6880   48.5490 C.ar      1 INR        -0.0673
      6 C6          5.2510   41.3070   48.5890 C.ar      1 INR        -0.0331
      7 C8          5.1390   43.6880   51.3530 C.2       1 INR         0.1921
      8 O10         4.6080   44.2600   52.2820 O.2       1 INR        -0.3607
      9 C9          6.5140   43.8280   50.8300 C.2       1 INR         0.1459
     10 C11         7.5750   44.6090   51.1860 C.2       1 INR         0.0843
     11 C12         8.8950   44.5920   50.5140 C.2       1 INR         0.2183
     12 O13         9.1670   43.8860   49.5430 O.2       1 INR        -0.3840
     13 N14         9.6940   45.4290   51.1040 N.am      1 INR        -0.2387
     14 N7          6.5960   42.9910   49.8150 N.pl3     1 INR        -0.2545
     15 C15         7.7760   45.6320   52.3030 C.ar      1 INR         0.0034
     16 C20         6.9910   46.1870   53.3550 C.ar      1 INR        -0.0513
     17 C19         7.5910   47.1560   54.2230 C.ar      1 INR         0.0324
     18 C18         8.9410   47.5580   54.0400 C.ar      1 INR        -0.0573
     19 C17         9.7160   47.0060   52.9840 C.ar      1 INR        -0.0429
     20 C16         9.1110   46.0470   52.1340 C.ar      1 INR         0.0685
     21 S21         6.5850   47.8190   55.5250 S.o2      1 INR        -0.1707
     22 O24         7.4830   48.7510   56.2540 O.co2     1 INR        -0.4816
     23 O23         6.1900   46.7450   56.4090 O.co2     1 INR        -0.4816
     24 O22         5.5630   48.6270   54.8910 O.co2     1 INR        -0.4816
     25 H1          2.4207   42.3222   51.2034 H         1 INR         0.0638
     26 H2          1.9692   40.5702   49.4391 H         1 INR         0.0531
     27 H3          3.7545   39.9336   47.7987 H         1 INR         0.0619
     28 H4          6.0258   41.0373   47.8804 H         1 INR         0.0554
     29 H5         10.6386   45.5920   50.8191 H         1 INR         0.2245
     30 H6          7.4464   42.8868   49.2433 H         1 INR         0.2208
     31 H7          5.9603   45.8820   53.4956 H         1 INR         0.0561
     32 H8          9.3820   48.2887   54.7083 H         1 INR         0.0564
     33 H9         10.7450   47.3113   52.8325 H         1 INR         0.0493
@<TRIPOS>BOND
     1   14    1 1  
     2    1    6 ar 
     3    1    2 ar 
     4    2    7 1  
     5    2    3 ar 
     6    3    4 ar 
     7    4    5 ar 
     8    6    5 ar 
     9    7    9 1  
    10    7    8 2  
    11    9   14 1  
    12    9   10 2  
    13   10   15 1  
    14   10   11 1  
    15   11   13 am 
    16   11   12 2  
    17   13   20 1  
    18   20   19 ar 
    19   15   20 ar 
    20   15   16 ar 
    21   16   17 ar 
    22   17   21 1  
    23   17   18 ar 
    24   18   19 ar 
    25   21   24 ar 
    26   21   23 ar 
    27   21   22 ar 
    28    3   25 1  
    29    4   26 1  
    30    5   27 1  
    31    6   28 1  
    32   13   29 1  
    33   14   30 1  
    34   16   31 1  
    35   18   32 1  
    36   19   33 1  
@<TRIPOS>SUBSTRUCTURE
     1 INR         1

