### 
### Created by X-TOOL on Mon Sep 10 21:12:45 2018
### 

@<TRIPOS>MOLECULE
1eas_ligand
   58    59     1     0     0
SMALL
GAST_HUCK


@<TRIPOS>ATOM
      1 C1         -8.3400   22.4230   36.7220 C.3       1 TFK         0.4175
      2 C2         -8.8880   23.5270   37.6530 C.3       1 TFK         0.1729
      3 C3        -10.4230   23.4460   37.8420 C.3       1 TFK         0.0787
      4 C4        -11.1980   24.6910   38.3120 C.3       1 TFK        -0.0209
      5 C5        -12.6810   24.6170   38.0350 C.3       1 TFK        -0.0605
      6 C6        -10.9280   25.0600   39.7590 C.3       1 TFK        -0.0605
      7 C7        -11.3620   21.2110   38.3310 C.2       1 TFK         0.2069
      8 C8        -11.3880   20.0850   39.3690 C.3       1 TFK         0.1481
      9 C9        -13.8070   19.5320   39.3490 C.2       1 TFK         0.2390
     10 C10       -14.8280   18.4950   39.3560 C.2       1 TFK         0.1331
     11 C11       -14.5020   17.2190   39.0310 C.2       1 TFK        -0.0590
     12 C12       -13.1670   16.9040   38.6660 C.2       1 TFK        -0.0636
     13 C13       -12.1500   17.8120   38.6680 C.2       1 TFK         0.0757
     14 C14       -10.7510   17.4390   38.2980 C.ar      1 TFK         0.0020
     15 C15       -10.0880   18.1000   37.2530 C.ar      1 TFK        -0.0555
     16 C16        -8.8160   17.7100   36.8920 C.ar      1 TFK        -0.0644
     17 C17        -8.2390   16.6210   37.4780 C.ar      1 TFK        -0.0648
     18 C18        -8.9130   15.9020   38.4540 C.ar      1 TFK        -0.0644
     19 C19       -10.1490   16.3270   38.8940 C.ar      1 TFK        -0.0555
     20 C20       -17.4200   17.8550   42.8080 C.3       1 TFK         0.0169
     21 N1        -10.6950   22.2880   38.7240 N.am      1 TFK        -0.2786
     22 N2        -12.4850   19.1310   39.1000 N.am      1 TFK        -0.2021
     23 N3        -16.1160   18.9320   39.7660 N.am      1 TFK        -0.1673
     24 N4        -16.9550   17.3180   41.5230 N.am      1 TFK        -0.2330
     25 O1         -8.5290   24.7280   37.0890 O.3       1 TFK        -0.3809
     26 O2        -11.9670   21.1210   37.2790 O.2       1 TFK        -0.3940
     27 O3        -14.0950   20.7020   39.6150 O.2       1 TFK        -0.4083
     28 O4        -18.4840   18.8030   40.3310 O.2       1 TFK        -0.1289
     29 O5        -17.4370   16.9860   39.0870 O.2       1 TFK        -0.1289
     30 F1         -8.6140   21.2120   37.1680 F         1 TFK        -0.1678
     31 F2         -7.0230   22.4560   36.5790 F         1 TFK        -0.1678
     32 F3         -8.8530   22.5120   35.4990 F         1 TFK        -0.1678
     33 S1        -17.3840   17.9740   40.0930 S.o2      1 TFK         0.1395
     34 H1         -8.4146   23.4305   38.6412 H         1 TFK         0.0707
     35 H2        -10.8347   23.2104   36.8495 H         1 TFK         0.0587
     36 H3        -10.8152   25.5260   37.7069 H         1 TFK         0.0318
     37 H4        -13.1676   25.5353   38.3955 H         1 TFK         0.0233
     38 H5        -13.1083   23.7471   38.5553 H         1 TFK         0.0233
     39 H6        -12.8472   24.5148   36.9525 H         1 TFK         0.0233
     40 H7         -9.8422   25.1059   39.9292 H         1 TFK         0.0233
     41 H8        -11.3709   24.3004   40.4199 H         1 TFK         0.0233
     42 H9        -11.3750   26.0412   39.9768 H         1 TFK         0.0233
     43 H10       -11.5305   20.5222   40.3683 H         1 TFK         0.0857
     44 H11       -10.4293   19.5466   39.3376 H         1 TFK         0.0857
     45 H12       -15.2618   16.4391   39.0501 H         1 TFK         0.0356
     46 H13       -12.9428   15.8808   38.3680 H         1 TFK         0.0350
     47 H14       -10.5749   18.9156   36.7306 H         1 TFK         0.0601
     48 H15        -8.2722   18.2703   36.1400 H         1 TFK         0.0609
     49 H16        -7.2435   16.3147   37.1776 H         1 TFK         0.0592
     50 H17        -8.4681   15.0058   38.8710 H         1 TFK         0.0609
     51 H18       -10.6512   15.8013   39.6981 H         1 TFK         0.0601
     52 H19       -17.0036   17.2531   43.6292 H         1 TFK         0.0440
     53 H20       -18.5187   17.8163   42.8456 H         1 TFK         0.0440
     54 H21       -17.0861   18.8979   42.9120 H         1 TFK         0.0440
     55 H22       -10.3582   22.3197   39.6651 H         1 TFK         0.1856
     56 H23       -16.2534   19.9179   39.8616 H         1 TFK         0.2233
     57 H24       -16.3525   16.5199   41.5248 H         1 TFK         0.1688
     58 H25        -7.5855   24.7569   36.9820 H         1 TFK         0.2103
@<TRIPOS>BOND
     1    2    1 1  
     2    1   30 1  
     3    1   31 1  
     4    1   32 1  
     5    3    2 1  
     6    2   25 1  
     7    3    4 1  
     8   21    3 1  
     9    4    5 1  
    10    4    6 1  
    11    8    7 1  
    12    7   21 am 
    13    7   26 2  
    14   22    8 1  
    15   10    9 1  
    16    9   22 am 
    17    9   27 2  
    18   10   11 2  
    19   23   10 am 
    20   11   12 1  
    21   12   13 2  
    22   13   14 1  
    23   22   13 1  
    24   14   15 ar 
    25   14   19 ar 
    26   15   16 ar 
    27   16   17 ar 
    28   18   17 ar 
    29   19   18 ar 
    30   24   20 1  
    31   33   23 am 
    32   24   33 am 
    33   33   28 2  
    34   33   29 2  
    35    2   34 1  
    36    3   35 1  
    37    4   36 1  
    38    5   37 1  
    39    5   38 1  
    40    5   39 1  
    41    6   40 1  
    42    6   41 1  
    43    6   42 1  
    44    8   43 1  
    45    8   44 1  
    46   11   45 1  
    47   12   46 1  
    48   15   47 1  
    49   16   48 1  
    50   17   49 1  
    51   18   50 1  
    52   19   51 1  
    53   20   52 1  
    54   20   53 1  
    55   20   54 1  
    56   21   55 1  
    57   23   56 1  
    58   24   57 1  
    59   25   58 1  
@<TRIPOS>SUBSTRUCTURE
     1 TFK         1

