### 
### Created by X-TOOL on Mon Sep 10 21:12:45 2018
### 

@<TRIPOS>MOLECULE
1eat_ligand
   57    58     1     0     0
SMALL
GAST_HUCK


@<TRIPOS>ATOM
      1 C1         -8.2040   22.4010   36.7880 C.3       1 TFI         0.4175
      2 C2         -8.7890   23.5050   37.7160 C.3       1 TFI         0.1729
      3 C3        -10.3040   23.4010   37.8790 C.3       1 TFI         0.0787
      4 C4        -11.1400   24.6340   38.2900 C.3       1 TFI        -0.0209
      5 C5        -12.6170   24.4600   38.0110 C.3       1 TFI        -0.0605
      6 C6        -10.9110   25.0880   39.7170 C.3       1 TFI        -0.0605
      7 C7        -11.3540   21.2360   38.4010 C.2       1 TFI         0.2076
      8 C8        -11.4600   20.1430   39.4620 C.3       1 TFI         0.1533
      9 C9        -13.8800   19.6170   39.3700 C.2       1 TFI         0.2486
     10 C10       -14.8990   18.5650   39.2610 C.2       1 TFI         0.1396
     11 C11       -14.4860   17.3190   38.9440 C.2       1 TFI        -0.0119
     12 C12       -12.2340   17.9170   38.7430 C.2       1 TFI         0.1429
     13 C13       -10.8370   17.4790   38.4100 C.ar      1 TFI         0.0215
     14 C14       -10.1170   18.0820   37.3630 C.ar      1 TFI        -0.0557
     15 C15        -8.8520   17.6470   37.0630 C.ar      1 TFI        -0.0387
     16 C16        -8.3080   16.5610   37.7550 C.ar      1 TFI         0.0410
     17 C17        -9.0600   15.8830   38.7070 C.ar      1 TFI        -0.0387
     18 C18       -10.3000   16.3570   39.0490 C.ar      1 TFI        -0.0557
     19 C19       -16.5730   18.1200   42.0370 C.3       1 TFI         0.0792
     20 N1        -10.5670   22.2490   38.7670 N.am      1 TFI        -0.2785
     21 N2        -12.5550   19.2090   39.1760 N.am      1 TFI        -0.1770
     22 N3        -13.1710   17.0010   38.6600 N.2       1 TFI        -0.3272
     23 N4        -16.2420   18.9510   39.5160 N.am      1 TFI        -0.1862
     24 N5         -6.9670   16.1770   37.5120 N.pl3     1 TFI        -0.3338
     25 O1         -8.4550   24.7180   37.1560 O.3       1 TFI        -0.3809
     26 O2        -12.0050   21.1960   37.3630 O.2       1 TFI        -0.3940
     27 O3        -14.1720   20.7850   39.6380 O.2       1 TFI        -0.3989
     28 O4        -18.4720   18.8100   40.5070 O.2       1 TFI        -0.1497
     29 O5        -17.2400   16.7790   40.0020 O.2       1 TFI        -0.1497
     30 F1         -8.4420   21.1710   37.2250 F         1 TFI        -0.1678
     31 F2         -6.8910   22.4790   36.6400 F         1 TFI        -0.1678
     32 F3         -8.7120   22.4680   35.5710 F         1 TFI        -0.1678
     33 S1        -17.2630   18.1010   40.4550 S.o2      1 TFI         0.0578
     34 H1         -8.3266   23.4189   38.7104 H         1 TFI         0.0707
     35 H2        -10.6837   23.1334   36.8819 H         1 TFI         0.0587
     36 H3        -10.7962   25.4576   37.6469 H         1 TFI         0.0318
     37 H4        -13.1582   25.3654   38.3229 H         1 TFI         0.0233
     38 H5        -12.9968   23.5940   38.5730 H         1 TFI         0.0233
     39 H6        -12.7698   24.2941   36.9344 H         1 TFI         0.0233
     40 H7         -9.8321   25.2072   39.8952 H         1 TFI         0.0233
     41 H8        -11.3163   24.3364   40.4104 H         1 TFI         0.0233
     42 H9        -11.4182   26.0501   39.8816 H         1 TFI         0.0233
     43 H10       -11.6394   20.6128   40.4403 H         1 TFI         0.0864
     44 H11       -10.5136   19.5832   39.4921 H         1 TFI         0.0864
     45 H12       -15.2280   16.5226   38.9103 H         1 TFI         0.0472
     46 H13       -10.5620   18.8901   36.7937 H         1 TFI         0.0626
     47 H14        -8.2752   18.1438   36.2913 H         1 TFI         0.0532
     48 H15        -8.6693   14.9868   39.1752 H         1 TFI         0.0532
     49 H16       -10.8704   15.8567   39.8232 H         1 TFI         0.0626
     50 H17       -17.2203   17.5576   42.7261 H         1 TFI         0.0488
     51 H18       -16.4825   19.1595   42.3851 H         1 TFI         0.0488
     52 H19       -15.5766   17.6549   42.0081 H         1 TFI         0.0488
     53 H20       -10.1411   22.2283   39.6715 H         1 TFI         0.1856
     54 H21       -16.5790   19.7929   39.0945 H         1 TFI         0.2180
     55 H22        -6.4076   16.6779   36.8070 H         1 TFI         0.1743
     56 H23        -6.5509   15.3968   38.0402 H         1 TFI         0.1743
     57 H24        -7.5115   24.7718   37.0593 H         1 TFI         0.2103
@<TRIPOS>BOND
     1    2    1 1  
     2    1   30 1  
     3    1   31 1  
     4    1   32 1  
     5    3    2 1  
     6    2   25 1  
     7    3    4 1  
     8   20    3 1  
     9    4    5 1  
    10    4    6 1  
    11    8    7 1  
    12    7   20 am 
    13    7   26 2  
    14   21    8 1  
    15   10    9 1  
    16    9   21 am 
    17    9   27 2  
    18   10   11 2  
    19   23   10 am 
    20   11   22 1  
    21   12   13 1  
    22   21   12 am 
    23   22   12 2  
    24   13   14 ar 
    25   13   18 ar 
    26   14   15 ar 
    27   15   16 ar 
    28   17   16 ar 
    29   16   24 1  
    30   18   17 ar 
    31   33   19 1  
    32   23   33 am 
    33   33   28 2  
    34   33   29 2  
    35    2   34 1  
    36    3   35 1  
    37    4   36 1  
    38    5   37 1  
    39    5   38 1  
    40    5   39 1  
    41    6   40 1  
    42    6   41 1  
    43    6   42 1  
    44    8   43 1  
    45    8   44 1  
    46   11   45 1  
    47   14   46 1  
    48   15   47 1  
    49   17   48 1  
    50   18   49 1  
    51   19   50 1  
    52   19   51 1  
    53   19   52 1  
    54   20   53 1  
    55   23   54 1  
    56   24   55 1  
    57   24   56 1  
    58   25   57 1  
@<TRIPOS>SUBSTRUCTURE
     1 TFI         1

