### 
### Created by X-TOOL on Mon Sep 10 21:12:49 2018
### 

@<TRIPOS>MOLECULE
1eb2_ligand
   64    67     1     0     0
SMALL
GAST_HUCK


@<TRIPOS>ATOM
      1 C22        12.5690  -12.7510   24.1120 C.ar      1 BPO         0.0329
      2 C1         12.8710   -3.7820   24.2480 C.ar      1 BPO        -0.0420
      3 N1         12.1740   -2.9340   29.2690 N.pl3     1 BPO        -0.2721
      4 C2         13.1970   -3.0100   26.5470 C.ar      1 BPO        -0.0523
      5 C7          8.7610   -6.3070   23.0030 C.3       1 BPO         0.1640
      6 C6          8.0310   -7.6200   23.4610 C.2       1 BPO         0.2159
      7 C5         11.5950   -4.2710   24.6230 C.ar      1 BPO         0.0501
      8 C4         11.1310   -4.1530   25.9410 C.ar      1 BPO        -0.0367
      9 C3         11.9420   -3.5110   26.9100 C.ar      1 BPO         0.0315
     10 C11         7.4290   -4.1700   23.1940 C.ar      1 BPO        -0.0557
     11 C10         7.6680   -5.3640   22.5020 C.ar      1 BPO         0.0010
     12 C9         11.3810   -3.4090   28.2850 C.cat     1 BPO         0.2367
     13 C8         10.7130   -4.9350   23.5830 C.2       1 BPO         0.2089
     14 C12         6.4390   -3.2870   22.7710 C.ar      1 BPO        -0.0681
     15 C17         9.5540  -11.0470   24.2180 C.3       1 BPO        -0.0143
     16 C16         8.5510   -9.9030   24.1580 C.3       1 BPO         0.0363
     17 C14         5.8950   -4.8230   20.9640 C.ar      1 BPO        -0.0681
     18 C13         5.6670   -3.6330   21.6510 C.ar      1 BPO        -0.0684
     19 C15         6.8930   -5.7200   21.3800 C.ar      1 BPO        -0.0557
     20 C18        10.9980  -10.6760   23.8290 C.3       1 BPO         0.0377
     21 C19        11.6300  -11.9640   23.2460 C.2       1 BPO         0.1361
     22 C20        11.0150   -9.7630   22.5630 C.3       1 BPO        -0.0143
     23 C          13.6590   -3.1610   25.2330 C.ar      1 BPO        -0.0562
     24 O           6.8780   -7.6790   23.8250 O.2       1 BPO        -0.3913
     25 O1         11.0060   -4.7500   22.4000 O.2       1 BPO        -0.3844
     26 N           9.5970   -5.6890   24.0250 N.am      1 BPO        -0.2543
     27 N2         10.0410   -3.5030   28.3310 N.pl3     1 BPO        -0.2721
     28 N3          8.8270   -8.7720   23.2810 N.am      1 BPO        -0.2694
     29 O2         11.3480  -12.2870   22.1100 O.2       1 BPO        -0.3781
     30 C21        10.2140   -8.4980   22.8570 C.3       1 BPO         0.0363
     31 C23        13.3920  -13.7170   23.4900 C.ar      1 BPO        -0.0430
     32 C24        14.2490  -14.4420   24.3040 C.ar      1 BPO        -0.0559
     33 C25        14.3430  -14.2730   25.6880 C.ar      1 BPO        -0.0572
     34 C26        13.5370  -13.3150   26.2830 C.ar      1 BPO        -0.0559
     35 C27        12.6610  -12.5670   25.4920 C.ar      1 BPO        -0.0430
     36 H1         13.2296   -3.8839   23.2301 H         1 BPO         0.0669
     37 H2         11.8107   -2.8532   30.2294 H         1 BPO         0.3181
     38 H3         13.1423   -2.6524   29.0593 H         1 BPO         0.3181
     39 H4         13.8121   -2.5048   27.2828 H         1 BPO         0.0652
     40 H5          9.4202   -6.5591   22.1593 H         1 BPO         0.0960
     41 H6         10.1604   -4.5494   26.2164 H         1 BPO         0.0669
     42 H7          8.0218   -3.9305   24.0693 H         1 BPO         0.0562
     43 H8          6.2683   -2.3534   23.2948 H         1 BPO         0.0600
     44 H9          9.2100  -11.8371   23.5344 H         1 BPO         0.0311
     45 H10         9.5679  -11.4335   25.2478 H         1 BPO         0.0311
     46 H11         8.4539   -9.5044   25.1786 H         1 BPO         0.0524
     47 H12         7.5898  -10.3323   23.8390 H         1 BPO         0.0524
     48 H13         5.2928   -5.0608   20.0946 H         1 BPO         0.0600
     49 H14         4.8822   -2.9646   21.3159 H         1 BPO         0.0561
     50 H15         7.0612   -6.6539   20.8560 H         1 BPO         0.0562
     51 H16        11.5535  -10.2476   24.6763 H         1 BPO         0.0522
     52 H17        12.0525   -9.4942   22.3152 H         1 BPO         0.0311
     53 H18        10.5624  -10.2983   21.7153 H         1 BPO         0.0311
     54 H19        14.6437   -2.7916   24.9705 H         1 BPO         0.0629
     55 H20         9.3915   -5.7928   24.9982 H         1 BPO         0.1902
     56 H21         9.5233   -3.8810   27.5248 H         1 BPO         0.3181
     57 H22         9.5318   -3.1970   29.1724 H         1 BPO         0.3181
     58 H23        10.7212   -7.9419   23.6592 H         1 BPO         0.0524
     59 H24        10.1857   -7.8828   21.9456 H         1 BPO         0.0524
     60 H25        13.3548  -13.8844   22.4196 H         1 BPO         0.0672
     61 H26        14.8853  -15.1857   23.8381 H         1 BPO         0.0630
     62 H27        15.0258  -14.8731   26.2786 H         1 BPO         0.0655
     63 H28        13.5858  -13.1475   27.3529 H         1 BPO         0.0630
     64 H29        12.0334  -11.8205   25.9653 H         1 BPO         0.0672
@<TRIPOS>BOND
     1   21    1 1  
     2    1   31 ar 
     3    1   35 ar 
     4    7    2 ar 
     5    5    6 1  
     6    7    8 ar 
     7   13    7 1  
     8    8    9 ar 
     9    9   12 1  
    10   11   10 ar 
    11   11    5 1  
    12   18   14 ar 
    13   16   15 1  
    14   21   29 2  
    15   31   32 ar 
    16   32   33 ar 
    17   34   33 ar 
    18   35   34 ar 
    19   28   30 1  
    20   30   22 1  
    21   28   16 1  
    22    6   28 am 
    23   12   27 ar 
    24   26   13 am 
    25    5   26 1  
    26   13   25 2  
    27    6   24 2  
    28   23    4 ar 
    29    2   23 ar 
    30   22   20 1  
    31   20   21 1  
    32   15   20 1  
    33   17   19 ar 
    34   19   11 ar 
    35   17   18 ar 
    36   14   10 ar 
    37   12    3 ar 
    38    9    4 ar 
    39    2   36 1  
    40    3   37 1  
    41    3   38 1  
    42    4   39 1  
    43    5   40 1  
    44    8   41 1  
    45   10   42 1  
    46   14   43 1  
    47   15   44 1  
    48   15   45 1  
    49   16   46 1  
    50   16   47 1  
    51   17   48 1  
    52   18   49 1  
    53   19   50 1  
    54   20   51 1  
    55   22   52 1  
    56   22   53 1  
    57   23   54 1  
    58   26   55 1  
    59   27   56 1  
    60   27   57 1  
    61   30   58 1  
    62   30   59 1  
    63   31   60 1  
    64   32   61 1  
    65   33   62 1  
    66   34   63 1  
    67   35   64 1  
@<TRIPOS>SUBSTRUCTURE
     1 BPO         1

