### 
### Created by X-TOOL on Mon Sep 10 21:12:49 2018
### 

@<TRIPOS>MOLECULE
1ebw_ligand
   98    99     1     0     0
SMALL
GAST_HUCK


@<TRIPOS>ATOM
      1 C34         9.9100   24.1780    2.1720 C.ar      1 BEI        -0.0173
      2 C35         9.2280   25.3590    1.8090 C.ar      1 BEI        -0.0581
      3 C36         7.8190   25.4550    1.9400 C.ar      1 BEI        -0.0685
      4 C37         7.0880   24.3570    2.4430 C.ar      1 BEI        -0.0687
      5 C38         7.7540   23.1590    2.8160 C.ar      1 BEI        -0.0685
      6 C39         9.1700   23.0730    2.6790 C.ar      1 BEI        -0.0581
      7 C40        16.4460   22.1800    8.7940 C.2       1 BEI        -0.0450
      8 C41        15.6340   21.2070    9.4800 C.3       1 BEI        -0.0089
      9 C42        16.2240   20.0240   10.0370 C.2       1 BEI        -0.0869
     10 C43        17.6170   19.8240    9.9050 C.2       1 BEI        -0.0918
     11 C44        18.4340   20.7940    9.2210 C.3       1 BEI        -0.0298
     12 C45        17.8460   21.9740    8.6640 C.2       1 BEI        -0.0963
     13 C30        15.8020   23.4140    8.2000 C.3       1 BEI         0.0788
     14 O29        14.7140   23.0580    7.2820 O.3       1 BEI        -0.3421
     15 C5         15.1550   22.6460    5.9370 C.3       1 BEI         0.1779
     16 C4         14.0930   23.0280    4.9120 C.3       1 BEI         0.1289
     17 C3         13.6800   24.4670    4.9960 C.3       1 BEI         0.1289
     18 C2         12.2940   24.6570    4.2920 C.3       1 BEI         0.1779
     19 C1         11.1140   24.6630    5.2640 C.2       1 BEI         0.2103
     20 O17        10.8230   23.6230    5.8630 O.2       1 BEI        -0.3940
     21 N18        10.4190   25.8270    5.4040 N.am      1 BEI        -0.2631
     22 C19         9.2350   25.9870    6.2840 C.3       1 BEI         0.1333
     23 C20         9.5850   26.6710    7.6650 C.3       1 BEI        -0.0037
     24 C21         8.2980   26.8910    8.5270 C.3       1 BEI        -0.0582
     25 C22        10.6480   25.8520    8.4900 C.3       1 BEI        -0.0491
     26 C46        11.3160   26.7570    9.5730 C.3       1 BEI        -0.0648
     27 C23         8.2700   26.8820    5.5190 C.2       1 BEI         0.2017
     28 O24         8.6910   27.9580    5.0600 O.2       1 BEI        -0.3945
     29 N25         6.9760   26.4220    5.3980 N.am      1 BEI        -0.2881
     30 C26         6.0360   27.2650    4.6770 C.3       1 BEI         0.0196
     31 O32        12.0690   23.6150    3.2490 O.3       1 BEI        -0.3411
     32 C33        11.4240   24.0930    2.0330 C.3       1 BEI         0.0851
     33 O27        14.7800   25.2040    4.3700 O.3       1 BEI        -0.3840
     34 O28        14.6060   22.7820    3.5510 O.3       1 BEI        -0.3840
     35 C6         15.3520   21.1950    5.7900 C.2       1 BEI         0.2104
     36 O7         14.3850   20.4830    6.1080 O.2       1 BEI        -0.3940
     37 N8         16.5460   20.7420    5.3250 N.am      1 BEI        -0.2631
     38 C9         16.8210   19.3220    5.1510 C.3       1 BEI         0.1333
     39 C10        16.7560   18.8890    3.6270 C.3       1 BEI        -0.0037
     40 C11        17.2260   17.3950    3.4290 C.3       1 BEI        -0.0582
     41 C12        15.3220   19.0400    3.0550 C.3       1 BEI        -0.0491
     42 C47        15.3410   19.0800    1.5130 C.3       1 BEI        -0.0648
     43 C13        18.2000   19.0980    5.7050 C.2       1 BEI         0.2017
     44 O14        19.1520   19.7800    5.2690 O.2       1 BEI        -0.3945
     45 N15        18.2940   18.1270    6.6760 N.am      1 BEI        -0.2881
     46 C16        19.6250   17.8910    7.2220 C.3       1 BEI         0.0196
     47 H1          9.7883   26.2038    1.4250 H         1 BEI         0.0557
     48 H2          7.3062   26.3666    1.6554 H         1 BEI         0.0599
     49 H3          6.0112   24.4286    2.5453 H         1 BEI         0.0559
     50 H4          7.1900   22.3174    3.2016 H         1 BEI         0.0599
     51 H5          9.6854   22.1624    2.9621 H         1 BEI         0.0557
     52 H6         14.8726   20.8700    8.7612 H         1 BEI         0.0516
     53 H7         15.1449   21.7357   10.3114 H         1 BEI         0.0516
     54 H8         15.6074   19.2904   10.5542 H         1 BEI         0.0481
     55 H9         18.0764   18.9297   10.3236 H         1 BEI         0.0481
     56 H10        18.9245   20.2642    8.3911 H         1 BEI         0.0446
     57 H11        19.1941   21.1304    9.9415 H         1 BEI         0.0446
     58 H12        18.4645   22.7057    8.1464 H         1 BEI         0.0270
     59 H13        16.5633   23.9855    7.6488 H         1 BEI         0.0717
     60 H14        15.3962   24.0333    9.0135 H         1 BEI         0.0717
     61 H15        16.0996   23.1616    5.7093 H         1 BEI         0.0870
     62 H16        13.2070   22.3994    5.0848 H         1 BEI         0.0674
     63 H17        13.5827   24.7775    6.0468 H         1 BEI         0.0674
     64 H18        12.3161   25.6368    3.7925 H         1 BEI         0.0870
     65 H19        10.7260   26.6224    4.8814 H         1 BEI         0.1883
     66 H20         8.7795   25.0042    6.4750 H         1 BEI         0.0802
     67 H21        10.0194   27.6573    7.4447 H         1 BEI         0.0345
     68 H22         8.5720   27.3674    9.4799 H         1 BEI         0.0235
     69 H23         7.8199   25.9206    8.7264 H         1 BEI         0.0235
     70 H24         7.5973   27.5397    7.9809 H         1 BEI         0.0235
     71 H25        11.4226   25.4733    7.8070 H         1 BEI         0.0267
     72 H26        10.1487   25.0053    8.9838 H         1 BEI         0.0267
     73 H27        12.0540   26.1687   10.1380 H         1 BEI         0.0230
     74 H28        10.5454   27.1359   10.2604 H         1 BEI         0.0230
     75 H29        11.8193   27.6039    9.0836 H         1 BEI         0.0230
     76 H30         6.6957   25.5456    5.7896 H         1 BEI         0.1848
     77 H31         5.0490   26.7797    4.6570 H         1 BEI         0.0484
     78 H32         6.3923   27.4138    3.6470 H         1 BEI         0.0484
     79 H33         5.9554   28.2391    5.1815 H         1 BEI         0.0484
     80 H34        11.8136   25.0943    1.7971 H         1 BEI         0.0726
     81 H35        11.6648   23.4028    1.2111 H         1 BEI         0.0726
     82 H36        14.8823   24.9147    3.4709 H         1 BEI         0.2102
     83 H37        13.9219   22.9657    2.9179 H         1 BEI         0.2102
     84 H38        17.2587   21.4047    5.0949 H         1 BEI         0.1883
     85 H39        16.0877   18.7304    5.7187 H         1 BEI         0.0802
     86 H40        17.4304   19.5459    3.0581 H         1 BEI         0.0345
     87 H41        17.1677   17.1306    2.3629 H         1 BEI         0.0235
     88 H42        16.5738   16.7255    4.0090 H         1 BEI         0.0235
     89 H43        18.2640   17.2879    3.7771 H         1 BEI         0.0235
     90 H44        14.8807   19.9739    3.4332 H         1 BEI         0.0267
     91 H45        14.7118   18.1862    3.3848 H         1 BEI         0.0267
     92 H46        14.3131   19.1873    1.1363 H         1 BEI         0.0230
     93 H47        15.7772   18.1468    1.1273 H         1 BEI         0.0230
     94 H48        15.9461   19.9344    1.1758 H         1 BEI         0.0230
     95 H49        17.4953   17.6130    6.9889 H         1 BEI         0.1848
     96 H50        19.5737   17.0990    7.9837 H         1 BEI         0.0484
     97 H51        20.0027   18.8168    7.6806 H         1 BEI         0.0484
     98 H52        20.3029   17.5791    6.4138 H         1 BEI         0.0484
@<TRIPOS>BOND
     1    1    2 ar 
     2    1    6 ar 
     3   32    1 1  
     4    2    3 ar 
     5    3    4 ar 
     6    5    4 ar 
     7    6    5 ar 
     8    7    8 1  
     9    7   12 2  
    10   13    7 1  
    11    8    9 1  
    12    9   10 2  
    13   11   10 1  
    14   12   11 1  
    15   14   13 1  
    16   15   14 1  
    17   16   15 1  
    18   17   16 1  
    19   18   17 1  
    20   18   19 1  
    21   31   18 1  
    22   19   20 2  
    23   19   21 am 
    24   21   22 1  
    25   22   23 1  
    26   22   27 1  
    27   23   24 1  
    28   23   25 1  
    29   25   26 1  
    30   27   28 2  
    31   27   29 am 
    32   29   30 1  
    33   32   31 1  
    34   17   33 1  
    35   16   34 1  
    36   15   35 1  
    37   35   36 2  
    38   35   37 am 
    39   37   38 1  
    40   38   39 1  
    41   38   43 1  
    42   39   40 1  
    43   39   41 1  
    44   41   42 1  
    45   43   44 2  
    46   43   45 am 
    47   45   46 1  
    48    2   47 1  
    49    3   48 1  
    50    4   49 1  
    51    5   50 1  
    52    6   51 1  
    53    8   52 1  
    54    8   53 1  
    55    9   54 1  
    56   10   55 1  
    57   11   56 1  
    58   11   57 1  
    59   12   58 1  
    60   13   59 1  
    61   13   60 1  
    62   15   61 1  
    63   16   62 1  
    64   17   63 1  
    65   18   64 1  
    66   21   65 1  
    67   22   66 1  
    68   23   67 1  
    69   24   68 1  
    70   24   69 1  
    71   24   70 1  
    72   25   71 1  
    73   25   72 1  
    74   26   73 1  
    75   26   74 1  
    76   26   75 1  
    77   29   76 1  
    78   30   77 1  
    79   30   78 1  
    80   30   79 1  
    81   32   80 1  
    82   32   81 1  
    83   33   82 1  
    84   34   83 1  
    85   37   84 1  
    86   38   85 1  
    87   39   86 1  
    88   40   87 1  
    89   40   88 1  
    90   40   89 1  
    91   41   90 1  
    92   41   91 1  
    93   42   92 1  
    94   42   93 1  
    95   42   94 1  
    96   45   95 1  
    97   46   96 1  
    98   46   97 1  
    99   46   98 1  
@<TRIPOS>SUBSTRUCTURE
     1 BEI         1

