### 
### Created by X-TOOL on Mon Sep 10 21:12:49 2018
### 

@<TRIPOS>MOLECULE
1eby_ligand
   88    93     1     0     0
SMALL
GAST_HUCK


@<TRIPOS>ATOM
      1 C23         9.8440   24.2070    2.2410 C.ar      1 BEB        -0.0173
      2 C24         9.2310   25.4050    1.7950 C.ar      1 BEB        -0.0581
      3 C25         7.8250   25.5750    1.9120 C.ar      1 BEB        -0.0685
      4 C26         7.0260   24.5420    2.4800 C.ar      1 BEB        -0.0687
      5 C27         7.6380   23.3390    2.9290 C.ar      1 BEB        -0.0685
      6 C28         9.0430   23.1720    2.8100 C.ar      1 BEB        -0.0581
      7 C33        16.6170   22.1670    8.8460 C.ar      1 BEB        -0.0173
      8 C34        15.8970   21.1820    9.5900 C.ar      1 BEB        -0.0581
      9 C35        16.5680   20.0300   10.0940 C.ar      1 BEB        -0.0685
     10 C36        17.9600   19.8590    9.8540 C.ar      1 BEB        -0.0687
     11 C37        18.6810   20.8390    9.1140 C.ar      1 BEB        -0.0685
     12 C38        18.0100   21.9900    8.6100 C.ar      1 BEB        -0.0581
     13 C32        15.8900   23.4020    8.2880 C.3       1 BEB         0.0851
     14 O31        14.7960   23.1160    7.3670 O.3       1 BEB        -0.3411
     15 C9         15.1800   22.6850    6.0280 C.3       1 BEB         0.1779
     16 C7         14.0630   23.0590    5.0310 C.3       1 BEB         0.1289
     17 C5         13.5940   24.5130    5.1080 C.3       1 BEB         0.1289
     18 C4         12.2210   24.7320    4.3560 C.3       1 BEB         0.1779
     19 C2         11.0340   24.7260    5.3120 C.2       1 BEB         0.2101
     20 O3         10.8180   23.7130    5.9610 O.2       1 BEB        -0.3940
     21 N1         10.2610   25.8030    5.3600 N.am      1 BEB        -0.2688
     22 O21        12.0380   23.6650    3.3570 O.3       1 BEB        -0.3411
     23 C22        11.3620   24.0330    2.1260 C.3       1 BEB         0.0851
     24 O6         14.6400   25.2940    4.4910 O.3       1 BEB        -0.3840
     25 O8         14.5800   22.8360    3.6910 O.3       1 BEB        -0.3840
     26 C10        15.3410   21.1990    5.9620 C.2       1 BEB         0.2101
     27 O11        14.3540   20.5160    6.2110 O.2       1 BEB        -0.3940
     28 N12        16.5050   20.7010    5.5790 N.am      1 BEB        -0.2688
     29 C51        16.8700   19.3000    5.3590 C.3       1 BEB         0.1007
     30 C52        16.7550   18.9200    3.8830 C.ar      1 BEB        -0.0133
     31 C57        17.6770   17.9100    3.5290 C.ar      1 BEB        -0.0361
     32 C53        15.8750   19.4460    2.8930 C.ar      1 BEB        -0.0646
     33 C54        15.9380   18.9450    1.5610 C.ar      1 BEB        -0.0754
     34 C55        16.8750   17.9240    1.2270 C.ar      1 BEB        -0.0755
     35 C59        18.2830   18.7480    5.6730 C.3       1 BEB         0.0951
     36 O60        19.2290   19.7990    5.3760 O.3       1 BEB        -0.3857
     37 C56        17.7580   17.3950    2.2120 C.ar      1 BEB        -0.0667
     38 C58        18.4980   17.5180    4.7450 C.3       1 BEB         0.0085
     39 C41         9.0290   26.0670    6.1350 C.3       1 BEB         0.1007
     40 C42         9.2990   26.7620    7.4770 C.ar      1 BEB        -0.0133
     41 C47         8.1960   27.5630    7.8780 C.ar      1 BEB        -0.0361
     42 C43        10.4560   26.7020    8.3060 C.ar      1 BEB        -0.0646
     43 C44        10.4930   27.4460    9.5260 C.ar      1 BEB        -0.0754
     44 C45         9.3790   28.2450    9.9180 C.ar      1 BEB        -0.0755
     45 C49         7.9050   26.9920    5.5960 C.3       1 BEB         0.0951
     46 O50         8.5420   28.1100    4.9260 O.3       1 BEB        -0.3857
     47 C46         8.2070   28.3130    9.0900 C.ar      1 BEB        -0.0667
     48 C48         7.0940   27.4690    6.8390 C.3       1 BEB         0.0085
     49 H1          9.8366   26.1937    1.3634 H         1 BEB         0.0557
     50 H2          7.3601   26.4920    1.5685 H         1 BEB         0.0599
     51 H3          5.9536   24.6722    2.5700 H         1 BEB         0.0559
     52 H4          7.0325   22.5507    3.3615 H         1 BEB         0.0599
     53 H5          9.5088   22.2551    3.1526 H         1 BEB         0.0557
     54 H6         14.8362   21.3115    9.7718 H         1 BEB         0.0557
     55 H7         16.0189   19.2855   10.6591 H         1 BEB         0.0599
     56 H8         18.4718   18.9825   10.2346 H         1 BEB         0.0559
     57 H9         19.7420   20.7089    8.9340 H         1 BEB         0.0599
     58 H10        18.5613   22.7331    8.0453 H         1 BEB         0.0557
     59 H11        16.6286   24.0205    7.7571 H         1 BEB         0.0726
     60 H12        15.4803   23.9682    9.1374 H         1 BEB         0.0726
     61 H13        16.1228   23.1753    5.7439 H         1 BEB         0.0870
     62 H14        13.1986   22.4037    5.2138 H         1 BEB         0.0674
     63 H15        13.4731   24.8094    6.1604 H         1 BEB         0.0674
     64 H16        12.2539   25.7048    3.8437 H         1 BEB         0.0870
     65 H17        10.5596   26.5592    4.7777 H         1 BEB         0.1881
     66 H18        11.7879   24.9848    1.7756 H         1 BEB         0.0726
     67 H19        11.5589   23.2472    1.3819 H         1 BEB         0.0726
     68 H20        14.7389   25.0286    3.5842 H         1 BEB         0.2102
     69 H21        13.8917   22.9970    3.0563 H         1 BEB         0.2102
     70 H22        17.2314   21.3692    5.4185 H         1 BEB         0.1881
     71 H23        16.1501   18.7155    5.9506 H         1 BEB         0.0732
     72 H24        15.1631   20.2215    3.1517 H         1 BEB         0.0538
     73 H25        15.2733   19.3402    0.8013 H         1 BEB         0.0541
     74 H26        16.9162   17.5458    0.2120 H         1 BEB         0.0541
     75 H27        18.3663   18.4491    6.7283 H         1 BEB         0.0659
     76 H28        20.1093   19.4920    5.5584 H         1 BEB         0.2103
     77 H29        18.4724   16.6195    1.9604 H         1 BEB         0.0537
     78 H30        19.5598   17.3888    4.4885 H         1 BEB         0.0439
     79 H31        18.1173   16.5949    5.2065 H         1 BEB         0.0439
     80 H32         8.5868   25.0763    6.3168 H         1 BEB         0.0732
     81 H33        11.3047   26.0947    8.0129 H         1 BEB         0.0538
     82 H34        11.3733   27.4025   10.1570 H         1 BEB         0.0541
     83 H35         9.4166   28.8042   10.8459 H         1 BEB         0.0541
     84 H36         7.2503   26.4533    4.8952 H         1 BEB         0.0659
     85 H37         7.8755   28.6948    4.5848 H         1 BEB         0.2103
     86 H38         7.3550   28.9177    9.3789 H         1 BEB         0.0537
     87 H39         6.6196   28.4456    6.6624 H         1 BEB         0.0439
     88 H40         6.3268   26.7355    7.1277 H         1 BEB         0.0439
@<TRIPOS>BOND
     1    1    2 ar 
     2    1    6 ar 
     3   23    1 1  
     4    2    3 ar 
     5    3    4 ar 
     6    5    4 ar 
     7    6    5 ar 
     8    7    8 ar 
     9    7   12 ar 
    10   13    7 1  
    11    8    9 ar 
    12    9   10 ar 
    13   11   10 ar 
    14   12   11 ar 
    15   14   13 1  
    16   15   14 1  
    17   16   15 1  
    18   17   16 1  
    19   18   17 1  
    20   18   19 1  
    21   22   18 1  
    22   19   20 2  
    23   19   21 am 
    24   23   22 1  
    25   17   24 1  
    26   16   25 1  
    27   15   26 1  
    28   26   27 2  
    29   26   28 am 
    30   28   29 1  
    31   29   30 1  
    32   29   35 1  
    33   30   31 ar 
    34   30   32 ar 
    35   31   37 ar 
    36   31   38 1  
    37   32   33 ar 
    38   33   34 ar 
    39   34   37 ar 
    40   35   36 1  
    41   35   38 1  
    42   21   39 1  
    43   39   40 1  
    44   39   45 1  
    45   40   41 ar 
    46   40   42 ar 
    47   41   47 ar 
    48   41   48 1  
    49   42   43 ar 
    50   43   44 ar 
    51   44   47 ar 
    52   45   46 1  
    53   45   48 1  
    54    2   49 1  
    55    3   50 1  
    56    4   51 1  
    57    5   52 1  
    58    6   53 1  
    59    8   54 1  
    60    9   55 1  
    61   10   56 1  
    62   11   57 1  
    63   12   58 1  
    64   13   59 1  
    65   13   60 1  
    66   15   61 1  
    67   16   62 1  
    68   17   63 1  
    69   18   64 1  
    70   21   65 1  
    71   23   66 1  
    72   23   67 1  
    73   24   68 1  
    74   25   69 1  
    75   28   70 1  
    76   29   71 1  
    77   32   72 1  
    78   33   73 1  
    79   34   74 1  
    80   35   75 1  
    81   36   76 1  
    82   37   77 1  
    83   38   78 1  
    84   38   79 1  
    85   39   80 1  
    86   42   81 1  
    87   43   82 1  
    88   44   83 1  
    89   45   84 1  
    90   46   85 1  
    91   47   86 1  
    92   48   87 1  
    93   48   88 1  
@<TRIPOS>SUBSTRUCTURE
     1 BEB         1

