### 
### Created by X-TOOL on Mon Sep 10 21:12:49 2018
### 

@<TRIPOS>MOLECULE
1ebz_ligand
   89    92     1     0     0
SMALL
GAST_HUCK


@<TRIPOS>ATOM
      1 C23         9.7610   24.2260    2.2630 C.ar      1 BEC        -0.0173
      2 C24         9.1790   25.4450    1.8530 C.ar      1 BEC        -0.0581
      3 C25         7.7780   25.6490    1.9890 C.ar      1 BEC        -0.0685
      4 C26         6.9560   24.6220    2.5410 C.ar      1 BEC        -0.0687
      5 C27         7.5370   23.3920    2.9570 C.ar      1 BEC        -0.0685
      6 C28         8.9420   23.1930    2.8180 C.ar      1 BEC        -0.0581
      7 C33        16.4360   22.2180    8.7480 C.ar      1 BEC        -0.0173
      8 C34        15.7560   21.1840    9.4800 C.ar      1 BEC        -0.0581
      9 C35        16.4880   20.0480    9.9520 C.ar      1 BEC        -0.0685
     10 C36        17.8850   19.9480    9.6910 C.ar      1 BEC        -0.0687
     11 C37        18.5560   20.9680    8.9670 C.ar      1 BEC        -0.0685
     12 C38        17.8340   22.1060    8.4910 C.ar      1 BEC        -0.0581
     13 C32        15.6530   23.4230    8.2230 C.3       1 BEC         0.0851
     14 O31        14.6060   23.0810    7.2720 O.3       1 BEC        -0.3411
     15 C9         15.0820   22.6700    5.9440 C.3       1 BEC         0.1779
     16 C7         13.9900   23.0200    4.9360 C.3       1 BEC         0.1289
     17 C5         13.5660   24.4580    4.9970 C.3       1 BEC         0.1289
     18 C4         12.1520   24.6650    4.3340 C.3       1 BEC         0.1779
     19 C2         11.0080   24.7130    5.3480 C.2       1 BEC         0.2103
     20 O3         10.7460   23.6860    5.9880 O.2       1 BEC        -0.3940
     21 N1         10.3370   25.8620    5.4890 N.am      1 BEC        -0.2632
     22 O21        11.8960   23.5860    3.3560 O.3       1 BEC        -0.3411
     23 C22        11.2600   24.0120    2.1290 C.3       1 BEC         0.0851
     24 O6         14.6290   25.1940    4.3310 O.3       1 BEC        -0.3840
     25 O8         14.4880   22.7520    3.5710 O.3       1 BEC        -0.3840
     26 C10        15.2540   21.1910    5.8510 C.2       1 BEC         0.2101
     27 O11        14.2730   20.5030    6.1260 O.2       1 BEC        -0.3940
     28 N12        16.4220   20.6990    5.5050 N.am      1 BEC        -0.2688
     29 C51        16.7770   19.2960    5.3840 C.3       1 BEC         0.1007
     30 C52        16.7260   18.8500    3.9360 C.ar      1 BEC        -0.0133
     31 C57        17.6880   17.8480    3.6580 C.ar      1 BEC        -0.0361
     32 C53        15.8680   19.3060    2.8900 C.ar      1 BEC        -0.0646
     33 C54        15.9940   18.7440    1.5810 C.ar      1 BEC        -0.0754
     34 C55        16.9780   17.7310    1.3270 C.ar      1 BEC        -0.0755
     35 C59        18.1720   18.8000    5.7720 C.3       1 BEC         0.0951
     36 O60        19.0750   19.8480    5.4190 O.3       1 BEC        -0.3857
     37 C56        17.8370   17.2720    2.3640 C.ar      1 BEC        -0.0667
     38 C58        18.4690   17.5380    4.9150 C.3       1 BEC         0.0085
     39 C41         9.2230   26.0330    6.4170 C.3       1 BEC         0.1331
     40 C42         9.3910   26.4240    7.9540 C.3       1 BEC        -0.0063
     41 C43         8.6010   27.6850    8.4190 C.3       1 BEC        -0.0584
     42 C44        10.8780   26.5090    8.4220 C.3       1 BEC        -0.0584
     43 C45         8.2840   26.9760    5.6730 C.2       1 BEC         0.2017
     44 O46         8.7460   28.0030    5.1260 O.2       1 BEC        -0.3945
     45 N47         6.9590   26.6040    5.6740 N.am      1 BEC        -0.2881
     46 C48         6.0160   27.4650    4.9860 C.3       1 BEC         0.0196
     47 H1          9.8012   26.2273    1.4336 H         1 BEC         0.0557
     48 H2          7.3342   26.5861    1.6728 H         1 BEC         0.0599
     49 H3          5.8883   24.7790    2.6435 H         1 BEC         0.0559
     50 H4          6.9149   22.6102    3.3774 H         1 BEC         0.0599
     51 H5          9.3901   22.2577    3.1333 H         1 BEC         0.0557
     52 H6         14.6925   21.2644    9.6738 H         1 BEC         0.0557
     53 H7         15.9810   19.2664   10.5062 H         1 BEC         0.0599
     54 H8         18.4391   19.0873   10.0477 H         1 BEC         0.0559
     55 H9         19.6194   20.8836    8.7745 H         1 BEC         0.0599
     56 H10        18.3481   22.8822    7.9358 H         1 BEC         0.0557
     57 H11        16.3596   24.1057    7.7284 H         1 BEC         0.0726
     58 H12        15.1886   23.9334    9.0796 H         1 BEC         0.0726
     59 H13        16.0257   23.1825    5.7058 H         1 BEC         0.0870
     60 H14        13.1142   22.3860    5.1383 H         1 BEC         0.0674
     61 H15        13.5019   24.7821    6.0462 H         1 BEC         0.0674
     62 H16        12.1691   25.6260    3.7991 H         1 BEC         0.0870
     63 H17        10.6128   26.6439    4.9299 H         1 BEC         0.1883
     64 H18        11.7194   24.9592    1.8099 H         1 BEC         0.0726
     65 H19        11.4343   23.2432    1.3619 H         1 BEC         0.0726
     66 H20        14.6923   24.9083    3.4271 H         1 BEC         0.2102
     67 H21        13.7942   22.9180    2.9437 H         1 BEC         0.2102
     68 H22        17.1436   21.3613    5.3034 H         1 BEC         0.1881
     69 H23        16.0383   18.7405    5.9804 H         1 BEC         0.0732
     70 H24        15.1268   20.0722    3.0865 H         1 BEC         0.0538
     71 H25        15.3462   19.0832    0.7808 H         1 BEC         0.0541
     72 H26        17.0680   17.3100    0.3321 H         1 BEC         0.0541
     73 H27        18.2353   18.5677    6.8453 H         1 BEC         0.0659
     74 H28        19.9616   19.5887    5.6409 H         1 BEC         0.2103
     75 H29        18.5819   16.5075    2.1751 H         1 BEC         0.0537
     76 H30        19.5443   17.4357    4.7069 H         1 BEC         0.0439
     77 H31        18.1013   16.6234    5.4031 H         1 BEC         0.0439
     78 H32         8.7342   25.0485    6.4583 H         1 BEC         0.0802
     79 H33         8.9504   25.5819    8.5079 H         1 BEC         0.0343
     80 H34         8.7884   27.8613    9.4885 H         1 BEC         0.0234
     81 H35         7.5250   27.5240    8.2570 H         1 BEC         0.0234
     82 H36         8.9322   28.5595    7.8397 H         1 BEC         0.0234
     83 H37        11.4199   25.6127    8.0859 H         1 BEC         0.0234
     84 H38        10.9141   26.5692    9.5198 H         1 BEC         0.0234
     85 H39        11.3477   27.4049    7.9900 H         1 BEC         0.0234
     86 H40         6.6567   25.7687    6.1333 H         1 BEC         0.1848
     87 H41         5.0040   27.0425    5.0714 H         1 BEC         0.0484
     88 H42         6.2940   27.5389    3.9243 H         1 BEC         0.0484
     89 H43         6.0347   28.4665    5.4405 H         1 BEC         0.0484
@<TRIPOS>BOND
     1    1    2 ar 
     2    1    6 ar 
     3   23    1 1  
     4    2    3 ar 
     5    3    4 ar 
     6    5    4 ar 
     7    6    5 ar 
     8    7    8 ar 
     9    7   12 ar 
    10   13    7 1  
    11    8    9 ar 
    12    9   10 ar 
    13   11   10 ar 
    14   12   11 ar 
    15   14   13 1  
    16   15   14 1  
    17   16   15 1  
    18   17   16 1  
    19   18   17 1  
    20   18   19 1  
    21   22   18 1  
    22   19   20 2  
    23   19   21 am 
    24   23   22 1  
    25   17   24 1  
    26   16   25 1  
    27   15   26 1  
    28   26   27 2  
    29   26   28 am 
    30   28   29 1  
    31   29   30 1  
    32   29   35 1  
    33   30   31 ar 
    34   30   32 ar 
    35   31   37 ar 
    36   31   38 1  
    37   32   33 ar 
    38   33   34 ar 
    39   34   37 ar 
    40   35   36 1  
    41   35   38 1  
    42   21   39 1  
    43   39   40 1  
    44   39   43 1  
    45   40   41 1  
    46   40   42 1  
    47   43   44 2  
    48   43   45 am 
    49   45   46 1  
    50    2   47 1  
    51    3   48 1  
    52    4   49 1  
    53    5   50 1  
    54    6   51 1  
    55    8   52 1  
    56    9   53 1  
    57   10   54 1  
    58   11   55 1  
    59   12   56 1  
    60   13   57 1  
    61   13   58 1  
    62   15   59 1  
    63   16   60 1  
    64   17   61 1  
    65   18   62 1  
    66   21   63 1  
    67   23   64 1  
    68   23   65 1  
    69   24   66 1  
    70   25   67 1  
    71   28   68 1  
    72   29   69 1  
    73   32   70 1  
    74   33   71 1  
    75   34   72 1  
    76   35   73 1  
    77   36   74 1  
    78   37   75 1  
    79   38   76 1  
    80   38   77 1  
    81   39   78 1  
    82   40   79 1  
    83   41   80 1  
    84   41   81 1  
    85   41   82 1  
    86   42   83 1  
    87   42   84 1  
    88   42   85 1  
    89   45   86 1  
    90   46   87 1  
    91   46   88 1  
    92   46   89 1  
@<TRIPOS>SUBSTRUCTURE
     1 BEC         1

