### 
### Created by X-TOOL on Mon Sep 10 21:12:49 2018
### 

@<TRIPOS>MOLECULE
1ec0_ligand
   88    93     1     0     0
SMALL
GAST_HUCK


@<TRIPOS>ATOM
      1 C01        16.5600   22.0740    8.7360 C.ar      1 BED         0.0165
      2 C02        17.9710   21.8820    8.4810 C.ar      1 BED        -0.0598
      3 C03        18.6600   20.7120    8.8980 C.ar      1 BED        -0.0725
      4 C04        17.9510   19.6690    9.5990 C.ar      1 BED        -0.0706
      5 C05        16.5510   19.8160    9.8720 C.ar      1 BED        -0.0348
      6 C06        15.8650   21.0100    9.4430 C.ar      1 BED         0.1353
      7 C07         9.8300   23.8680    2.2960 C.ar      1 BED         0.0165
      8 C08         8.8110   22.9360    2.7380 C.ar      1 BED         0.1353
      9 C09         7.4250   23.3290    2.7330 C.ar      1 BED        -0.0348
     10 C10         7.0500   24.6440    2.2880 C.ar      1 BED        -0.0706
     11 C11         8.0620   25.5710    1.8480 C.ar      1 BED        -0.0725
     12 C12         9.4340   25.1850    1.8550 C.ar      1 BED        -0.0598
     13 C13        11.3110   23.4870    2.3030 C.3       1 BED         0.0859
     14 O14        11.7930   23.1120    3.6080 O.3       1 BED        -0.3418
     15 C15        11.8950   24.2250    4.5510 C.3       1 BED         0.1778
     16 C16        12.9550   23.9760    5.5860 C.3       1 BED         0.1289
     17 C17        14.2570   23.6220    4.9800 C.3       1 BED         0.1289
     18 C18        15.1320   22.8490    6.0000 C.3       1 BED         0.1778
     19 C19        15.1410   21.3470    5.8310 C.2       1 BED         0.2101
     20 O20        14.1310   20.6550    6.0000 O.2       1 BED        -0.3940
     21 N21        16.3590   20.7900    5.4950 N.am      1 BED        -0.2688
     22 O22        14.7770   23.1250    7.3840 O.3       1 BED        -0.3418
     23 C23        15.8900   23.3530    8.2520 C.3       1 BED         0.0859
     24 O24        14.8130   24.8770    4.5610 O.3       1 BED        -0.3840
     25 O25        13.1170   25.1020    6.4930 O.3       1 BED        -0.3840
     26 C26        10.6800   24.3210    5.3860 C.2       1 BED         0.2101
     27 O27        10.2950   23.3310    6.0100 O.2       1 BED        -0.3940
     28 N28        10.0420   25.5140    5.4090 N.am      1 BED        -0.2688
     29 C29         8.8530   25.7180    6.1840 C.3       1 BED         0.1007
     30 C30         9.1420   26.4450    7.4680 C.ar      1 BED        -0.0133
     31 C31         8.0410   27.2850    7.8160 C.ar      1 BED        -0.0361
     32 C32        10.3150   26.3960    8.3190 C.ar      1 BED        -0.0646
     33 C33        10.3540   27.2030    9.5150 C.ar      1 BED        -0.0754
     34 C34         9.2270   28.0440    9.8480 C.ar      1 BED        -0.0755
     35 C35         7.7630   26.6090    5.5700 C.3       1 BED         0.0951
     36 O36         8.4140   27.6650    4.8690 O.3       1 BED        -0.3857
     37 C37         8.0590   28.0920    8.9990 C.ar      1 BED        -0.0667
     38 C38         6.9690   27.1580    6.7820 C.3       1 BED         0.0085
     39 C39        16.6030   19.3700    5.2960 C.3       1 BED         0.1007
     40 C40        16.5080   18.9380    3.8540 C.ar      1 BED        -0.0133
     41 C41        17.4320   17.8860    3.5830 C.ar      1 BED        -0.0361
     42 C42        15.6550   19.4350    2.8070 C.ar      1 BED        -0.0646
     43 C43        15.7550   18.8480    1.4880 C.ar      1 BED        -0.0754
     44 C44        16.6880   17.7930    1.2350 C.ar      1 BED        -0.0755
     45 C45        18.0030   18.8550    5.6630 C.3       1 BED         0.0951
     46 O46        18.9460   19.8890    5.3350 O.3       1 BED        -0.3857
     47 C47        17.5400   17.2960    2.2760 C.ar      1 BED        -0.0667
     48 C48        18.1950   17.5570    4.8220 C.3       1 BED         0.0085
     49 F49        14.5850   21.0660    9.7270 F         1 BED        -0.1890
     50 F50         9.1310   21.7320    3.1530 F         1 BED        -0.1890
     51 H1         18.5196   22.6552    7.9553 H         1 BED         0.0546
     52 H2         19.7182   20.6027    8.6897 H         1 BED         0.0565
     53 H3         18.4757   18.7760    9.9187 H         1 BED         0.0549
     54 H4         16.0122   19.0355   10.3969 H         1 BED         0.0585
     55 H5          6.6637   22.6324    3.0652 H         1 BED         0.0585
     56 H6          6.0066   24.9379    2.2835 H         1 BED         0.0549
     57 H7          7.7796   26.5621    1.5116 H         1 BED         0.0565
     58 H8         10.1897   25.8887    1.5252 H         1 BED         0.0546
     59 H9         11.8956   24.3486    1.9484 H         1 BED         0.0718
     60 H10        11.4572   22.6381    1.6189 H         1 BED         0.0718
     61 H11        12.0822   25.1589    4.0008 H         1 BED         0.0870
     62 H12        12.6243   23.1147    6.1850 H         1 BED         0.0674
     63 H13        14.1038   22.9793    4.1006 H         1 BED         0.0674
     64 H14        16.1628   23.2001    5.8445 H         1 BED         0.0870
     65 H15        17.1339   21.4115    5.3795 H         1 BED         0.1881
     66 H16        16.6362   23.9524    7.7099 H         1 BED         0.0718
     67 H17        15.5367   23.9138    9.1299 H         1 BED         0.0718
     68 H18        14.9248   25.4409    5.3173 H         1 BED         0.2102
     69 H19        13.7288   24.8676    7.1809 H         1 BED         0.2102
     70 H20        10.4092   26.2731    4.8715 H         1 BED         0.1881
     71 H21         8.4296   24.7251    6.3959 H         1 BED         0.0732
     72 H22        11.1537   25.7600    8.0597 H         1 BED         0.0538
     73 H23        11.2246   27.1784   10.1604 H         1 BED         0.0541
     74 H24         9.2584   28.6476   10.7479 H         1 BED         0.0541
     75 H25         7.1077   26.0425    4.8920 H         1 BED         0.0659
     76 H26         7.7612   28.2335    4.4778 H         1 BED         0.2103
     77 H27         7.2156   28.7244    9.2516 H         1 BED         0.0537
     78 H28         6.5141   28.1333    6.5544 H         1 BED         0.0439
     79 H29         6.1864   26.4537    7.1005 H         1 BED         0.0439
     80 H30        15.8531   18.8329    5.8953 H         1 BED         0.0732
     81 H31        14.9501   20.2349    3.0028 H         1 BED         0.0538
     82 H32        15.1198   19.2094    0.6874 H         1 BED         0.0541
     83 H33        16.7517   17.3632    0.2419 H         1 BED         0.0541
     84 H34        18.0717   18.6215    6.7357 H         1 BED         0.0659
     85 H35        19.8233   19.5965    5.5524 H         1 BED         0.2103
     86 H36        18.2466   16.4969    2.0828 H         1 BED         0.0537
     87 H37        19.2573   17.3746    4.6026 H         1 BED         0.0439
     88 H38        17.7706   16.6808    5.3339 H         1 BED         0.0439
@<TRIPOS>BOND
     1    1    2 ar 
     2    1    6 ar 
     3   23    1 1  
     4    2    3 ar 
     5    3    4 ar 
     6    5    4 ar 
     7    6    5 ar 
     8    6   49 1  
     9    7    8 ar 
    10    7   12 ar 
    11   13    7 1  
    12    8    9 ar 
    13    9   10 ar 
    14   11   10 ar 
    15   12   11 ar 
    16   14   13 1  
    17   15   14 1  
    18   16   15 1  
    19   17   16 1  
    20   18   17 1  
    21   18   19 1  
    22   22   18 1  
    23   19   20 2  
    24   19   21 am 
    25   23   22 1  
    26   17   24 1  
    27   16   25 1  
    28   15   26 1  
    29   26   27 2  
    30   26   28 am 
    31   28   29 1  
    32   29   30 1  
    33   29   35 1  
    34   30   31 ar 
    35   30   32 ar 
    36   31   37 ar 
    37   31   38 1  
    38   32   33 ar 
    39   33   34 ar 
    40   34   37 ar 
    41   35   36 1  
    42   35   38 1  
    43   21   39 1  
    44   39   40 1  
    45   39   45 1  
    46   40   41 ar 
    47   40   42 ar 
    48   41   47 ar 
    49   41   48 1  
    50   42   43 ar 
    51   43   44 ar 
    52   44   47 ar 
    53   45   46 1  
    54   45   48 1  
    55    8   50 1  
    56    2   51 1  
    57    3   52 1  
    58    4   53 1  
    59    5   54 1  
    60    9   55 1  
    61   10   56 1  
    62   11   57 1  
    63   12   58 1  
    64   13   59 1  
    65   13   60 1  
    66   15   61 1  
    67   16   62 1  
    68   17   63 1  
    69   18   64 1  
    70   21   65 1  
    71   23   66 1  
    72   23   67 1  
    73   24   68 1  
    74   25   69 1  
    75   28   70 1  
    76   29   71 1  
    77   32   72 1  
    78   33   73 1  
    79   34   74 1  
    80   35   75 1  
    81   36   76 1  
    82   37   77 1  
    83   38   78 1  
    84   38   79 1  
    85   39   80 1  
    86   42   81 1  
    87   43   82 1  
    88   44   83 1  
    89   45   84 1  
    90   46   85 1  
    91   47   86 1  
    92   48   87 1  
    93   48   88 1  
@<TRIPOS>SUBSTRUCTURE
     1 BED         1

