### 
### Created by X-TOOL on Mon Sep 10 21:12:49 2018
### 

@<TRIPOS>MOLECULE
1ec1_ligand
  104   107     1     0     0
SMALL
GAST_HUCK


@<TRIPOS>ATOM
      1 C1          9.6990   24.1970    2.0210 C.ar      1 BEE        -0.0193
      2 C2          8.8750   25.3280    1.7780 C.ar      1 BEE        -0.0601
      3 C3          7.4870   25.2680    2.0450 C.ar      1 BEE        -0.0652
      4 C4          6.9240   24.0700    2.5610 C.ar      1 BEE        -0.0389
      5 C5          7.7450   22.9490    2.8020 C.ar      1 BEE        -0.0652
      6 C6          9.1320   23.0130    2.5310 C.ar      1 BEE        -0.0601
      7 C7         16.1290   22.2560    8.4860 C.ar      1 BEE        -0.0193
      8 C8         15.2880   21.3820    9.2560 C.ar      1 BEE        -0.0601
      9 C9         15.8300   20.2190    9.8780 C.ar      1 BEE        -0.0652
     10 C10        17.2070   19.9410    9.7230 C.ar      1 BEE        -0.0389
     11 C11        18.0500   20.8170    8.9500 C.ar      1 BEE        -0.0652
     12 C12        17.5070   21.9760    8.3300 C.ar      1 BEE        -0.0601
     13 C13        15.5360   23.4680    7.8280 C.3       1 BEE         0.0842
     14 O14        14.4830   23.0790    6.8890 O.3       1 BEE        -0.3414
     15 C15        14.9750   22.6310    5.6020 C.3       1 BEE         0.1779
     16 C16        13.9660   23.0370    4.5340 C.3       1 BEE         0.1289
     17 C17        13.6090   24.4890    4.6210 C.3       1 BEE         0.1289
     18 C18        12.2440   24.7750    3.9330 C.3       1 BEE         0.1779
     19 C19        11.1130   24.7390    4.9470 C.2       1 BEE         0.2103
     20 O20        10.8580   23.6700    5.5050 O.2       1 BEE        -0.3940
     21 N21        10.4450   25.8700    5.1860 N.am      1 BEE        -0.2632
     22 C22         9.3130   26.0080    6.1470 C.3       1 BEE         0.1331
     23 C23         9.7950   26.6620    7.5070 C.3       1 BEE        -0.0063
     24 C24         8.6220   26.8450    8.5390 C.3       1 BEE        -0.0584
     25 C25        10.9290   25.8670    8.2170 C.3       1 BEE        -0.0584
     26 C26         8.3280   26.9390    5.4710 C.2       1 BEE         0.2017
     27 O27         8.7550   27.9790    4.9110 O.2       1 BEE        -0.3945
     28 N28         7.0060   26.5550    5.5290 N.am      1 BEE        -0.2881
     29 C29         6.0290   27.4130    4.9020 C.3       1 BEE         0.0196
     30 O30        11.9830   23.7760    2.8750 O.3       1 BEE        -0.3414
     31 C31        11.1740   24.2640    1.7440 C.3       1 BEE         0.0842
     32 O32        14.7300   25.2090    4.0680 O.3       1 BEE        -0.3840
     33 O33        14.4920   22.6890    3.2060 O.3       1 BEE        -0.3840
     34 C34        15.1860   21.1770    5.4980 C.2       1 BEE         0.2103
     35 O35        14.2600   20.4330    5.8250 O.2       1 BEE        -0.3940
     36 N36        16.3780   20.7550    5.0390 N.am      1 BEE        -0.2632
     37 C37        16.7070   19.3610    4.8750 C.3       1 BEE         0.1331
     38 C38        16.7420   18.9890    3.3390 C.3       1 BEE        -0.0063
     39 C39        15.3530   19.1990    2.6090 C.3       1 BEE        -0.0584
     40 C40        17.2320   17.5220    3.0970 C.3       1 BEE        -0.0584
     41 C41        18.0850   19.2010    5.4630 C.2       1 BEE         0.2017
     42 O42        19.0310   19.9390    5.0590 O.2       1 BEE        -0.3945
     43 N43        18.1920   18.2380    6.3980 N.am      1 BEE        -0.2881
     44 C44        19.5140   18.0360    6.9900 C.3       1 BEE         0.0196
     45 S45         2.8320   24.2220    2.6690 S.3       1 BEE        -0.0434
     46 C46         3.5320   23.3990    4.0830 C.2       1 BEE        -0.0068
     47 C47         4.8620   23.3490    4.0530 C.2       1 BEE        -0.0703
     48 C48         5.4290   23.9890    2.8530 C.2       1 BEE        -0.0357
     49 C49         4.4780   24.4830    2.0530 C.2       1 BEE         0.0016
     50 S50        19.4380   17.0920   11.6130 S.3       1 BEE        -0.0434
     51 C51        19.0340   18.6610   10.8970 C.2       1 BEE         0.0016
     52 C52        17.8000   18.7100   10.3870 C.2       1 BEE        -0.0357
     53 C53        17.0800   17.4330   10.5500 C.2       1 BEE        -0.0703
     54 C54        17.8140   16.5110   11.1690 C.2       1 BEE        -0.0068
     55 H1          9.3110   26.2401    1.3867 H         1 BEE         0.0553
     56 H2          6.8574   26.1302    1.8572 H         1 BEE         0.0579
     57 H3          7.3124   22.0364    3.1957 H         1 BEE         0.0579
     58 H4          9.7597   22.1489    2.7163 H         1 BEE         0.0553
     59 H5         14.2335   21.6084    9.3649 H         1 BEE         0.0553
     60 H6         15.1966   19.5593   10.4599 H         1 BEE         0.0579
     61 H7         19.1046   20.5913    8.8403 H         1 BEE         0.0579
     62 H8         18.1396   22.6351    7.7465 H         1 BEE         0.0553
     63 H9         16.3254   24.0067    7.2834 H         1 BEE         0.0724
     64 H10        15.1082   24.1255    8.5991 H         1 BEE         0.0724
     65 H11        15.9349   23.1323    5.4091 H         1 BEE         0.0870
     66 H12        13.0453   22.4581    4.6990 H         1 BEE         0.0674
     67 H13        13.5067   24.7703    5.6795 H         1 BEE         0.0674
     68 H14        12.2820   25.7757    3.4778 H         1 BEE         0.0870
     69 H15        10.7252   26.6871    4.6821 H         1 BEE         0.1883
     70 H16         8.8547   25.0282    6.3469 H         1 BEE         0.0802
     71 H17        10.1883   27.6589    7.2590 H         1 BEE         0.0343
     72 H18         9.0124   27.3012    9.4607 H         1 BEE         0.0234
     73 H19         8.1830   25.8639    8.7730 H         1 BEE         0.0234
     74 H20         7.8504   27.4979    8.1051 H         1 BEE         0.0234
     75 H21        11.7671   25.7218    7.5195 H         1 BEE         0.0234
     76 H22        10.5448   24.8874    8.5375 H         1 BEE         0.0234
     77 H23        11.2767   26.4299    9.0958 H         1 BEE         0.0234
     78 H24         6.7326   25.7106    5.9898 H         1 BEE         0.1848
     79 H25         5.0257   26.9802    5.0290 H         1 BEE         0.0484
     80 H26         6.2558   27.5045    3.8295 H         1 BEE         0.0484
     81 H27         6.0609   28.4081    5.3697 H         1 BEE         0.0484
     82 H28        11.4475   25.3097    1.5399 H         1 BEE         0.0724
     83 H29        11.3954   23.6478    0.8601 H         1 BEE         0.0724
     84 H30        14.8318   24.9791    3.1518 H         1 BEE         0.2102
     85 H31        13.8342   22.8771    2.5468 H         1 BEE         0.2102
     86 H32        17.0672   21.4393    4.8007 H         1 BEE         0.1883
     87 H33        15.9800   18.7238    5.3998 H         1 BEE         0.0802
     88 H34        17.4683   19.6654    2.8646 H         1 BEE         0.0343
     89 H35        15.4504   18.9221    1.5489 H         1 BEE         0.0234
     90 H36        15.0541   20.2548    2.6862 H         1 BEE         0.0234
     91 H37        14.5894   18.5660    3.0846 H         1 BEE         0.0234
     92 H38        18.1973   17.3698    3.6021 H         1 BEE         0.0234
     93 H39        17.3518   17.3488    2.0174 H         1 BEE         0.0234
     94 H40        16.4913   16.8165    3.5016 H         1 BEE         0.0234
     95 H41        17.4047   17.6869    6.6746 H         1 BEE         0.1848
     96 H42        19.4632   17.2265    7.7331 H         1 BEE         0.0484
     97 H43        19.8417   18.9642    7.4809 H         1 BEE         0.0484
     98 H44        20.2315   17.7652    6.2014 H         1 BEE         0.0484
     99 H45         2.9336   22.9792    4.8903 H         1 BEE         0.0721
    100 H46         5.4659   22.8851    4.8315 H         1 BEE         0.0408
    101 H47         4.6915   24.9950    1.1159 H         1 BEE         0.0737
    102 H48        19.7239   19.5033   10.8747 H         1 BEE         0.0737
    103 H49        16.0619   17.2634   10.2028 H         1 BEE         0.0408
    104 H50        17.4578   15.5042   11.3822 H         1 BEE         0.0721
@<TRIPOS>BOND
     1    1    2 ar 
     2    1    6 ar 
     3   31    1 1  
     4    2    3 ar 
     5    3    4 ar 
     6    5    4 ar 
     7    4   48 1  
     8    6    5 ar 
     9    8    7 ar 
    10   12    7 ar 
    11    7   13 1  
    12    9    8 ar 
    13   10    9 ar 
    14   10   11 ar 
    15   11   12 ar 
    16   13   14 1  
    17   14   15 1  
    18   15   16 1  
    19   16   17 1  
    20   17   18 1  
    21   18   19 1  
    22   18   30 1  
    23   19   20 2  
    24   19   21 am 
    25   21   22 1  
    26   22   23 1  
    27   22   26 1  
    28   23   24 1  
    29   23   25 1  
    30   26   27 2  
    31   26   28 am 
    32   28   29 1  
    33   30   31 1  
    34   17   32 1  
    35   16   33 1  
    36   15   34 1  
    37   34   35 2  
    38   34   36 am 
    39   36   37 1  
    40   37   38 1  
    41   37   41 1  
    42   38   39 1  
    43   38   40 1  
    44   41   42 2  
    45   41   43 am 
    46   43   44 1  
    47   45   46 1  
    48   47   46 2  
    49   48   47 1  
    50   48   49 2  
    51   49   45 1  
    52   51   50 1  
    53   50   54 1  
    54   52   51 2  
    55   10   52 1  
    56   52   53 1  
    57   53   54 2  
    58    2   55 1  
    59    3   56 1  
    60    5   57 1  
    61    6   58 1  
    62    8   59 1  
    63    9   60 1  
    64   11   61 1  
    65   12   62 1  
    66   13   63 1  
    67   13   64 1  
    68   15   65 1  
    69   16   66 1  
    70   17   67 1  
    71   18   68 1  
    72   21   69 1  
    73   22   70 1  
    74   23   71 1  
    75   24   72 1  
    76   24   73 1  
    77   24   74 1  
    78   25   75 1  
    79   25   76 1  
    80   25   77 1  
    81   28   78 1  
    82   29   79 1  
    83   29   80 1  
    84   29   81 1  
    85   31   82 1  
    86   31   83 1  
    87   32   84 1  
    88   33   85 1  
    89   36   86 1  
    90   37   87 1  
    91   38   88 1  
    92   39   89 1  
    93   39   90 1  
    94   39   91 1  
    95   40   92 1  
    96   40   93 1  
    97   40   94 1  
    98   43   95 1  
    99   44   96 1  
   100   44   97 1  
   101   44   98 1  
   102   46   99 1  
   103   47  100 1  
   104   49  101 1  
   105   51  102 1  
   106   53  103 1  
   107   54  104 1  
@<TRIPOS>SUBSTRUCTURE
     1 BEE         1

