### 
### Created by X-TOOL on Mon Sep 10 21:12:49 2018
### 

@<TRIPOS>MOLECULE
1ec3_ligand
  108   111     1     0     0
SMALL
GAST_HUCK


@<TRIPOS>ATOM
      1 C01        16.2580   22.0690    9.0200 C.ar      1 MS3        -0.0173
      2 C02        17.2040   20.9620    8.8780 C.ar      1 MS3        -0.0581
      3 C03        16.9140   19.7040    9.5810 C.ar      1 MS3        -0.0685
      4 C04        15.7160   19.5770   10.3940 C.ar      1 MS3        -0.0687
      5 C05        14.7770   20.6800   10.5380 C.ar      1 MS3        -0.0685
      6 C06        15.0370   21.9420    9.8500 C.ar      1 MS3        -0.0581
      7 C07        10.4100   23.8130    2.2450 C.ar      1 MS3        -0.0173
      8 C08         9.4040   22.8200    2.6310 C.ar      1 MS3        -0.0581
      9 C09         8.0210   23.1350    2.5040 C.ar      1 MS3        -0.0685
     10 C10         7.6300   24.4420    1.9920 C.ar      1 MS3        -0.0687
     11 C11         8.6190   25.4440    1.6050 C.ar      1 MS3        -0.0685
     12 C12        10.0230   25.1140    1.7390 C.ar      1 MS3        -0.0581
     13 C13        11.8450   23.4500    2.4080 C.3       1 MS3         0.0851
     14 O14        12.1250   23.1500    3.7970 O.3       1 MS3        -0.3411
     15 C15        12.2080   24.3230    4.6820 C.3       1 MS3         0.1779
     16 C16        13.3310   24.1430    5.6680 C.3       1 MS3         0.1289
     17 C17        14.6550   23.8250    5.0060 C.3       1 MS3         0.1289
     18 C18        15.5920   23.0810    5.9630 C.3       1 MS3         0.1779
     19 C19        15.4570   21.5490    5.7820 C.2       1 MS3         0.2103
     20 O20        14.4400   20.9420    6.1090 O.2       1 MS3        -0.3940
     21 N21        16.5820   20.9290    5.2320 N.am      1 MS3        -0.2632
     22 C22        16.7610   19.5050    4.9450 C.3       1 MS3         0.1333
     23 C23        16.5350   19.1420    3.4090 C.3       1 MS3        -0.0063
     24 C24        16.7320   17.6340    3.0590 C.3       1 MS3        -0.0584
     25 C25        15.1190   19.4960    2.9270 C.3       1 MS3        -0.0584
     26 C26        18.1860   19.1630    5.4220 C.2       1 MS3         0.2040
     27 O27        19.1530   19.7580    4.9570 O.2       1 MS3        -0.3944
     28 N28        18.2680   18.1630    6.3790 N.am      1 MS3        -0.2713
     29 C29        19.7630   17.7430    6.9210 C.3       1 MS3         0.0798
     30 O30        15.3830   23.4530    7.3890 O.3       1 MS3        -0.3411
     31 C31        16.4990   23.3290    8.3300 C.3       1 MS3         0.0851
     32 O32        15.1810   25.0700    4.5250 O.3       1 MS3        -0.3840
     33 O33        13.4490   25.3190    6.5620 O.3       1 MS3        -0.3840
     34 C34        10.9830   24.4830    5.5140 C.2       1 MS3         0.2103
     35 O35        10.5450   23.5130    6.1670 O.2       1 MS3        -0.3940
     36 N36        10.3910   25.7350    5.5150 N.am      1 MS3        -0.2632
     37 C37         9.1760   26.0730    6.2960 C.3       1 MS3         0.1333
     38 C38         9.4930   26.8710    7.6470 C.3       1 MS3        -0.0063
     39 C39         8.2210   27.2190    8.4920 C.3       1 MS3        -0.0584
     40 C40        10.4960   26.1380    8.5530 C.3       1 MS3        -0.0584
     41 C41         8.2830   26.9130    5.3820 C.2       1 MS3         0.2040
     42 O42         8.7040   27.9590    4.9540 O.2       1 MS3        -0.3944
     43 N43         7.0430   26.3810    5.1240 N.am      1 MS3        -0.2713
     44 C44         6.0610   27.0570    4.2700 C.3       1 MS3         0.0798
     45 C45         4.9800   26.1070    3.7940 C.ar      1 MS3         0.0502
     46 C46         4.5590   26.1220    2.4130 C.ar      1 MS3        -0.0304
     47 C47         3.5060   25.1750    2.0040 C.ar      1 MS3        -0.0488
     48 C48         2.8930   24.2380    2.9630 C.ar      1 MS3        -0.0410
     49 C49         3.4020   24.3200    4.3310 C.ar      1 MS3         0.0028
     50 N50         4.4050   25.2220    4.7190 N.ar      1 MS3        -0.2960
     51 C51        19.9980   18.0340    8.4200 C.ar      1 MS3         0.0502
     52 C52        20.4810   19.3140    8.8350 C.ar      1 MS3        -0.0304
     53 C53        20.6980   19.5820   10.2450 C.ar      1 MS3        -0.0488
     54 C54        20.4220   18.5510   11.1980 C.ar      1 MS3        -0.0410
     55 C55        19.9380   17.2790   10.7380 C.ar      1 MS3         0.0028
     56 N56        19.7390   17.0490    9.3780 N.ar      1 MS3        -0.2960
     57 H1         18.0955   21.0667    8.2703 H         1 MS3         0.0557
     58 H2         17.5970   18.8669    9.4926 H         1 MS3         0.0599
     59 H3         15.5175   18.6412   10.9039 H         1 MS3         0.0559
     60 H4         13.8908   20.5656   11.1517 H         1 MS3         0.0599
     61 H5         14.3473   22.7729    9.9451 H         1 MS3         0.0557
     62 H6          9.7105   21.8520    3.0107 H         1 MS3         0.0557
     63 H7          7.2664   22.4095    2.7855 H         1 MS3         0.0599
     64 H8          6.5761   24.6768    1.8958 H         1 MS3         0.0559
     65 H9          8.3100   26.4116    1.2265 H         1 MS3         0.0599
     66 H10        10.7810   25.8376    1.4618 H         1 MS3         0.0557
     67 H11        12.4731   24.2927    2.0835 H         1 MS3         0.0726
     68 H12        12.0696   22.5667    1.7921 H         1 MS3         0.0726
     69 H13        12.3708   25.2240    4.0723 H         1 MS3         0.0870
     70 H14        13.0709   23.2785    6.2964 H         1 MS3         0.0674
     71 H15        14.4742   23.1676    4.1428 H         1 MS3         0.0674
     72 H16        16.6217   23.3624    5.6974 H         1 MS3         0.0870
     73 H17        17.3525   21.5262    5.0091 H         1 MS3         0.1883
     74 H18        16.0345   18.9271    5.5351 H         1 MS3         0.0802
     75 H19        17.2631   19.7287    2.8297 H         1 MS3         0.0343
     76 H20        16.5562   17.4811    1.9840 H         1 MS3         0.0234
     77 H21        16.0194   17.0273    3.6370 H         1 MS3         0.0234
     78 H22        17.7593   17.3306    3.3093 H         1 MS3         0.0234
     79 H23        14.9117   20.5542    3.1441 H         1 MS3         0.0234
     80 H24        14.3853   18.8641    3.4489 H         1 MS3         0.0234
     81 H25        15.0467   19.3232    1.8431 H         1 MS3         0.0234
     82 H26        17.4462   17.7125    6.7278 H         1 MS3         0.1882
     83 H27        20.5105   18.3027    6.3397 H         1 MS3         0.0713
     84 H28        19.9004   16.6646    6.7533 H         1 MS3         0.0713
     85 H29        17.4586   23.3006    7.7930 H         1 MS3         0.0726
     86 H30        16.5019   24.1675    9.0419 H         1 MS3         0.0726
     87 H31        15.3476   25.6475    5.2607 H         1 MS3         0.2102
     88 H32        14.0913   25.1381    7.2382 H         1 MS3         0.2102
     89 H33        10.8068   26.4530    4.9567 H         1 MS3         0.1883
     90 H34         8.6546   25.1417    6.5623 H         1 MS3         0.0802
     91 H35         9.9549   27.8226    7.3451 H         1 MS3         0.0343
     92 H36         8.5213   27.7638    9.3992 H         1 MS3         0.0234
     93 H37         7.7042   26.2905    8.7762 H         1 MS3         0.0234
     94 H38         7.5442   27.8472    7.8942 H         1 MS3         0.0234
     95 H39        11.3967   25.8859    7.9741 H         1 MS3         0.0234
     96 H40        10.0368   25.2152    8.9370 H         1 MS3         0.0234
     97 H41        10.7721   26.7885    9.3960 H         1 MS3         0.0234
     98 H42         6.8013   25.5012    5.5332 H         1 MS3         0.1882
     99 H43         6.5787   27.4748    3.3940 H         1 MS3         0.0713
    100 H44         5.5925   27.8714    4.8420 H         1 MS3         0.0713
    101 H45         5.0029   26.8074    1.7001 H         1 MS3         0.0652
    102 H46         3.1740   25.1674    0.9721 H         1 MS3         0.0719
    103 H47         2.1185   23.5368    2.6738 H         1 MS3         0.0652
    104 H48         2.9863   23.6546    5.0790 H         1 MS3         0.0803
    105 H49        20.6847   20.0827    8.0983 H         1 MS3         0.0652
    106 H50        21.0637   20.5489   10.5712 H         1 MS3         0.0719
    107 H51        20.5765   18.7279   12.2562 H         1 MS3         0.0652
    108 H52        19.7262   16.4928   11.4536 H         1 MS3         0.0803
@<TRIPOS>BOND
     1    1    2 ar 
     2    1    6 ar 
     3   31    1 1  
     4    2    3 ar 
     5    3    4 ar 
     6    5    4 ar 
     7    6    5 ar 
     8    7    8 ar 
     9    7   12 ar 
    10   13    7 1  
    11    8    9 ar 
    12    9   10 ar 
    13   11   10 ar 
    14   12   11 ar 
    15   14   13 1  
    16   15   14 1  
    17   16   15 1  
    18   17   16 1  
    19   18   17 1  
    20   18   19 1  
    21   30   18 1  
    22   19   20 2  
    23   19   21 am 
    24   21   22 1  
    25   22   23 1  
    26   22   26 1  
    27   23   24 1  
    28   23   25 1  
    29   26   27 2  
    30   26   28 am 
    31   28   29 1  
    32   31   30 1  
    33   17   32 1  
    34   16   33 1  
    35   15   34 1  
    36   34   35 2  
    37   34   36 am 
    38   36   37 1  
    39   37   38 1  
    40   37   41 1  
    41   38   39 1  
    42   38   40 1  
    43   41   42 2  
    44   41   43 am 
    45   43   44 1  
    46   44   45 1  
    47   45   46 ar 
    48   45   50 ar 
    49   46   47 ar 
    50   47   48 ar 
    51   48   49 ar 
    52   49   50 ar 
    53   29   51 1  
    54   51   52 ar 
    55   51   56 ar 
    56   52   53 ar 
    57   53   54 ar 
    58   54   55 ar 
    59   55   56 ar 
    60    2   57 1  
    61    3   58 1  
    62    4   59 1  
    63    5   60 1  
    64    6   61 1  
    65    8   62 1  
    66    9   63 1  
    67   10   64 1  
    68   11   65 1  
    69   12   66 1  
    70   13   67 1  
    71   13   68 1  
    72   15   69 1  
    73   16   70 1  
    74   17   71 1  
    75   18   72 1  
    76   21   73 1  
    77   22   74 1  
    78   23   75 1  
    79   24   76 1  
    80   24   77 1  
    81   24   78 1  
    82   25   79 1  
    83   25   80 1  
    84   25   81 1  
    85   28   82 1  
    86   29   83 1  
    87   29   84 1  
    88   31   85 1  
    89   31   86 1  
    90   32   87 1  
    91   33   88 1  
    92   36   89 1  
    93   37   90 1  
    94   38   91 1  
    95   39   92 1  
    96   39   93 1  
    97   39   94 1  
    98   40   95 1  
    99   40   96 1  
   100   40   97 1  
   101   43   98 1  
   102   44   99 1  
   103   44  100 1  
   104   46  101 1  
   105   47  102 1  
   106   48  103 1  
   107   49  104 1  
   108   52  105 1  
   109   53  106 1  
   110   54  107 1  
   111   55  108 1  
@<TRIPOS>SUBSTRUCTURE
     1 MS3         1

