### 
### Created by X-TOOL on Mon Sep 10 21:12:47 2018
### 

@<TRIPOS>MOLECULE
1ecv_ligand
   20    20     1     0     0
SMALL
GAST_HUCK


@<TRIPOS>ATOM
      1 C1         12.5800   45.0950   19.1910 C.ar      1 878        -0.0619
      2 C2         11.6470   45.7120   20.0210 C.ar      1 878        -0.0342
      3 C3         10.3050   45.6960   19.6290 C.ar      1 878         0.0849
      4 C4          9.9240   45.1170   18.4090 C.ar      1 878         0.0335
      5 C5         10.8440   44.4610   17.6030 C.ar      1 878        -0.0501
      6 C6         12.1690   44.4310   18.0190 C.ar      1 878        -0.0026
      7 C10         8.4990   45.1420   17.9810 C.2       1 878         0.0554
      8 O11         7.5840   45.2690   18.7380 O.co2     1 878        -0.5655
      9 O12         8.2750   44.9050   16.6860 O.co2     1 878        -0.5655
     10 N13         9.3060   46.1420   20.4340 N.am      1 878        -0.2211
     11 C14         9.3470   46.8630   21.5730 C.2       1 878         0.2733
     12 O15        10.3890   47.1340   22.1730 O.2       1 878        -0.3521
     13 C16         7.9330   47.2600   22.1520 C.2       1 878         0.1502
     14 O17         6.9810   46.5360   22.1490 O.co2     1 878        -0.5454
     15 O18         7.8610   48.4170   22.7810 O.co2     1 878        -0.5454
     16 I19        13.5490   43.3360   16.8780 I         1 878        -0.0615
     17 H1         13.6323   45.1262   19.4496 H         1 878         0.0625
     18 H2         11.9525   46.1908   20.9443 H         1 878         0.0518
     19 H3         10.5380   43.9867   16.6775 H         1 878         0.0639
     20 H4          8.3857   45.8942   20.1313 H         1 878         0.2298
@<TRIPOS>BOND
     1    6   16 1  
     2    6    1 ar 
     3    1    2 ar 
     4    2    3 ar 
     5    3   10 1  
     6    3    4 ar 
     7    4    7 1  
     8    4    5 ar 
     9    5    6 ar 
    10    7    9 ar 
    11    7    8 ar 
    12   10   11 am 
    13   11   13 1  
    14   11   12 2  
    15   13   15 ar 
    16   13   14 ar 
    17    1   17 1  
    18    2   18 1  
    19    5   19 1  
    20   10   20 1  
@<TRIPOS>SUBSTRUCTURE
     1 878         1

