### 
### Created by X-TOOL on Mon Sep 10 21:12:45 2018
### 

@<TRIPOS>MOLECULE
1eed_ligand
   99   100     1     0     0
SMALL
GAST_HUCK


@<TRIPOS>ATOM
      1 OT1         2.1180   27.1890   20.3310 O.2       1 0EO        -0.3775
      2 CT1         2.6590   26.4090   19.4870 C.2       1 0EO         0.3204
      3 OT2         2.2040   25.0180   19.3660 O.3       1 0EO        -0.2581
      4 CT2         1.3620   24.3570   20.3580 C.3       1 0EO         0.0905
      5 CT3         0.1070   25.1870   20.6420 C.3       1 0EO        -0.0320
      6 CT4         2.1620   24.1560   21.6470 C.3       1 0EO        -0.0320
      7 CT5         0.9730   22.9710   19.8170 C.3       1 0EO        -0.0320
      8 C           3.4060   32.1580   15.8780 C.2       1 0EO         0.1764
      9 O           3.0450   33.1230   16.5620 O.2       1 0EO        -0.3971
     10 CA1         2.7790   30.7700   16.1010 C.3       1 0EO         0.0396
     11 CM          3.2570   30.1720   17.4450 C.3       1 0EO        -0.0076
     12 CH          3.8500   28.7740   17.2040 C.3       1 0EO         0.0819
     13 OH          2.8660   27.9860   16.5620 O.3       1 0EO        -0.3892
     14 CA          4.2950   28.0940   18.5170 C.3       1 0EO         0.0793
     15 N           3.6650   26.7350   18.6380 N.am      1 0EO        -0.2550
     16 CB          5.8330   27.9980   18.4050 C.3       1 0EO         0.0064
     17 CG          6.5580   27.5970   19.6950 C.ar      1 0EO        -0.0408
     18 CD1         5.8880   26.8690   20.6830 C.ar      1 0EO        -0.0603
     19 CD2         7.9030   27.9550   19.8770 C.ar      1 0EO        -0.0603
     20 CE1         6.5620   26.4920   21.8510 C.ar      1 0EO        -0.0686
     21 CE2         8.5770   27.5760   21.0440 C.ar      1 0EO        -0.0686
     22 CZ          7.9060   26.8450   22.0310 C.ar      1 0EO        -0.0687
     23 N           4.3240   32.2220   14.9150 N.am      1 0EO        -0.2813
     24 CA          5.0780   33.4630   14.6120 C.3       1 0EO         0.0702
     25 CB          6.5750   33.2520   14.9320 C.3       1 0EO        -0.0245
     26 CG          6.8280   32.5940   16.3040 C.3       1 0EO        -0.0389
     27 CD1         6.3260   33.5220   17.4150 C.3       1 0EO        -0.0501
     28 CD2         8.2110   32.3510   16.4950 C.3       1 0EO        -0.0501
     29 CE1         6.5210   32.8820   18.7930 C.3       1 0EO        -0.0528
     30 CE2         8.4670   31.6490   17.8380 C.3       1 0EO        -0.0528
     31 CZ          7.9890   32.5210   18.9980 C.3       1 0EO        -0.0530
     32 CH          4.9610   33.8490   13.1280 C.3       1 0EO         0.0946
     33 OH          5.3820   32.7690   12.3130 O.3       1 0EO        -0.3872
     34 CM          3.5150   34.2070   12.7690 C.3       1 0EO         0.0655
     35 C           3.2000   35.6310   13.2290 C.2       1 0EO         0.1802
     36 O           2.9290   35.8620   14.4140 O.2       1 0EO        -0.3969
     37 N           3.4250   36.6090   12.3300 N.am      1 0EO        -0.2713
     38 CA          3.2460   38.0170   12.6820 C.3       1 0EO         0.0945
     39 C           1.7700   38.2940   12.9820 C.2       1 0EO         0.0601
     40 O           0.8940   38.0090   12.1660 O.co2     1 0EO        -0.5666
     41 CB          3.7010   38.8890   11.5240 C.3       1 0EO        -0.0156
     42 CG          3.5780   40.3810   11.8720 C.3       1 0EO        -0.0431
     43 CD1         4.1390   40.7330   13.1560 C.3       1 0EO        -0.0625
     44 CD2         3.9130   41.3670   10.7810 C.3       1 0EO        -0.0625
     45 OXT         1.3890   38.8490   14.1050 O.co2     1 0EO        -0.5666
     46 H1         -0.5120   24.6712   21.3909 H         1 0EO         0.0260
     47 H2         -0.4687   25.3108   19.7129 H         1 0EO         0.0260
     48 H3          0.4001   26.1751   21.0263 H         1 0EO         0.0260
     49 H4          1.5299   23.6579   22.3969 H         1 0EO         0.0260
     50 H5          2.4874   25.1334   22.0328 H         1 0EO         0.0260
     51 H6          3.0436   23.5322   21.4379 H         1 0EO         0.0260
     52 H7          0.3369   22.4559   20.5519 H         1 0EO         0.0260
     53 H8          1.8824   22.3781   19.6398 H         1 0EO         0.0260
     54 H9          0.4214   23.0876   18.8725 H         1 0EO         0.0260
     55 H10         3.0776   30.1013   15.2802 H         1 0EO         0.0503
     56 H11         1.6833   30.8654   16.1161 H         1 0EO         0.0503
     57 H12         2.4041   30.0941   18.1353 H         1 0EO         0.0315
     58 H13         4.0255   30.8252   17.8839 H         1 0EO         0.0315
     59 H14         4.7265   28.8684   16.5461 H         1 0EO         0.0619
     60 H15         2.0979   27.9256   17.1179 H         1 0EO         0.2099
     61 H16         4.0112   28.7051   19.3865 H         1 0EO         0.0604
     62 H17         4.0165   26.0117   18.0436 H         1 0EO         0.1873
     63 H18         6.2135   28.9817   18.0926 H         1 0EO         0.0449
     64 H19         6.0720   27.2507   17.6341 H         1 0EO         0.0449
     65 H20         4.8479   26.5967   20.5449 H         1 0EO         0.0557
     66 H21         8.4200   28.5251   19.1136 H         1 0EO         0.0557
     67 H22         6.0435   25.9265   22.6168 H         1 0EO         0.0599
     68 H23         9.6170   27.8483   21.1830 H         1 0EO         0.0599
     69 H24         8.4265   26.5517   22.9355 H         1 0EO         0.0559
     70 H25         4.5122   31.4015   14.3753 H         1 0EO         0.1855
     71 H26         4.6802   34.2808   15.2308 H         1 0EO         0.0583
     72 H27         7.0745   34.2319   14.9193 H         1 0EO         0.0291
     73 H28         7.0096   32.6087   14.1527 H         1 0EO         0.0291
     74 H29         6.2836   31.6393   16.3510 H         1 0EO         0.0302
     75 H30         5.2558   33.7232   17.2598 H         1 0EO         0.0268
     76 H31         6.8865   34.4676   17.3748 H         1 0EO         0.0268
     77 H32         8.7498   33.3099   16.4820 H         1 0EO         0.0268
     78 H33         8.5799   31.7120   15.6792 H         1 0EO         0.0268
     79 H34         5.9089   31.9706   18.8612 H         1 0EO         0.0265
     80 H35         6.2085   33.5928   19.5722 H         1 0EO         0.0265
     81 H36         9.5450   31.4599   17.9478 H         1 0EO         0.0265
     82 H37         7.9233   30.6930   17.8561 H         1 0EO         0.0265
     83 H38         8.1021   31.9686   19.9425 H         1 0EO         0.0265
     84 H39         8.5907   33.4410   19.0369 H         1 0EO         0.0265
     85 H40         5.6046   34.7201   12.9359 H         1 0EO         0.0642
     86 H41         6.2866   32.5578   12.5116 H         1 0EO         0.2101
     87 H42         2.8311   33.5037   13.2666 H         1 0EO         0.0529
     88 H43         3.3824   34.1384   11.6792 H         1 0EO         0.0529
     89 H44         3.7197   36.3677   11.4054 H         1 0EO         0.1875
     90 H45         3.8481   38.2492   13.5728 H         1 0EO         0.0726
     91 H46         3.0765   38.6728   10.6446 H         1 0EO         0.0308
     92 H47         4.7517   38.6596   11.2930 H         1 0EO         0.0308
     93 H48         2.4954   40.5172   12.0115 H         1 0EO         0.0297
     94 H49         4.0113   41.8118   13.3286 H         1 0EO         0.0232
     95 H50         5.2104   40.4840   13.1688 H         1 0EO         0.0232
     96 H51         3.6225   40.1713   13.9483 H         1 0EO         0.0232
     97 H52         3.4558   41.0378    9.8362 H         1 0EO         0.0232
     98 H53         5.0049   41.4230   10.6600 H         1 0EO         0.0232
     99 H54         3.5226   42.3593   11.0510 H         1 0EO         0.0232
@<TRIPOS>BOND
     1   37   38 1  
     2   38   41 1  
     3   38   39 1  
     4   39   40 ar 
     5   39   45 ar 
     6   41   42 1  
     7   42   43 1  
     8   42   44 1  
     9    2    1 2  
    10    2    3 1  
    11    3    4 1  
    12    4    5 1  
    13    4    6 1  
    14    4    7 1  
    15    8    9 2  
    16    8   10 1  
    17   23    8 am 
    18   10   11 1  
    19   11   12 1  
    20   12   13 1  
    21   12   14 1  
    22   14   15 1  
    23   14   16 1  
    24   15    2 am 
    25   16   17 1  
    26   17   18 ar 
    27   17   19 ar 
    28   18   20 ar 
    29   19   21 ar 
    30   20   22 ar 
    31   21   22 ar 
    32   24   23 1  
    33   24   25 1  
    34   32   24 1  
    35   25   26 1  
    36   26   27 1  
    37   26   28 1  
    38   27   29 1  
    39   28   30 1  
    40   29   31 1  
    41   30   31 1  
    42   32   33 1  
    43   34   32 1  
    44   35   34 1  
    45   35   36 2  
    46   35   37 am 
    47    5   46 1  
    48    5   47 1  
    49    5   48 1  
    50    6   49 1  
    51    6   50 1  
    52    6   51 1  
    53    7   52 1  
    54    7   53 1  
    55    7   54 1  
    56   10   55 1  
    57   10   56 1  
    58   11   57 1  
    59   11   58 1  
    60   12   59 1  
    61   13   60 1  
    62   14   61 1  
    63   15   62 1  
    64   16   63 1  
    65   16   64 1  
    66   18   65 1  
    67   19   66 1  
    68   20   67 1  
    69   21   68 1  
    70   22   69 1  
    71   23   70 1  
    72   24   71 1  
    73   25   72 1  
    74   25   73 1  
    75   26   74 1  
    76   27   75 1  
    77   27   76 1  
    78   28   77 1  
    79   28   78 1  
    80   29   79 1  
    81   29   80 1  
    82   30   81 1  
    83   30   82 1  
    84   31   83 1  
    85   31   84 1  
    86   32   85 1  
    87   33   86 1  
    88   34   87 1  
    89   34   88 1  
    90   37   89 1  
    91   38   90 1  
    92   41   91 1  
    93   41   92 1  
    94   42   93 1  
    95   43   94 1  
    96   43   95 1  
    97   43   96 1  
    98   44   97 1  
    99   44   98 1  
   100   44   99 1  
@<TRIPOS>SUBSTRUCTURE
     1 0EO         1

