### 
### Created by X-TOOL on Mon Sep 10 21:12:47 2018
### 

@<TRIPOS>MOLECULE
1eef_ligand
   56    59     1     0     0
SMALL
GAST_HUCK


@<TRIPOS>ATOM
      1 C1         20.7670   19.8500   39.3330 C.3       1 GLA         0.2108
      2 C2         19.9050   21.0200   38.8730 C.3       1 GLA         0.1387
      3 C3         18.4480   20.6560   38.7970 C.3       1 GLA         0.1145
      4 C4         18.2490   19.4050   38.0070 C.3       1 GLA         0.1119
      5 C5         19.0560   18.2800   38.5740 C.3       1 GLA         0.1134
      6 C6         18.9460   17.0210   37.7210 C.3       1 GLA         0.0730
      7 O1         20.4890   19.6890   40.7420 O.3       1 GLA        -0.2806
      8 O2         20.0050   22.1110   39.7720 O.3       1 GLA        -0.3837
      9 O3         17.7320   21.7440   38.1960 O.3       1 GLA        -0.3864
     10 O4         18.6730   19.6850   36.6430 O.3       1 GLA        -0.3865
     11 O5         20.4410   18.6390   38.5990 O.3       1 GLA        -0.3367
     12 O6         19.5270   15.9940   38.4870 O.3       1 GLA        -0.3924
     13 C7         21.3510   19.0350   41.5780 C.ar      1 I06         0.1052
     14 C8         20.9270   17.8980   42.2310 C.ar      1 I06        -0.0073
     15 C9         21.8200   17.1970   43.0390 C.ar      1 I06         0.0629
     16 C10        23.1370   17.6550   43.2020 C.ar      1 I06         0.0596
     17 C11        23.5540   18.8080   42.5260 C.ar      1 I06        -0.0451
     18 C12        22.6640   19.4960   41.7230 C.ar      1 I06        -0.0226
     19 C13        21.3610   15.9830   43.7130 C.2       1 I06         0.2300
     20 O13        20.2450   15.5170   43.6010 O.2       1 I06        -0.3806
     21 N14        22.2490   15.3720   44.4510 N.am      1 I06        -0.1662
     22 N15        23.5790   15.7980   44.6400 N.am      1 I06        -0.1805
     23 C16        24.0950   16.8920   44.0470 C.2       1 I06         0.2218
     24 O16        25.2680   17.2080   44.2210 O.2       1 I06        -0.3860
     25 CA         21.9340   14.2750   45.3330 C.3       1 I06         0.0680
     26 CB         21.9430   13.0730   44.4380 C.3       1 I06         0.0035
     27 CG         23.1260   13.0580   43.5200 C.ar      1 I06        -0.0410
     28 CD1        24.3650   12.6190   43.9910 C.ar      1 I06        -0.0603
     29 CD2        23.0440   13.6200   42.2410 C.ar      1 I06        -0.0603
     30 CE1        25.5020   12.7410   43.2230 C.ar      1 I06        -0.0686
     31 CE2        24.1840   13.7550   41.4470 C.ar      1 I06        -0.0686
     32 CZ         25.4150   13.3190   41.9330 C.ar      1 I06        -0.0687
     33 H1         21.8312   20.0843   39.1826 H         1 GLA         0.0995
     34 H2         20.2514   21.3341   37.8773 H         1 GLA         0.0675
     35 H3         18.0666   20.4931   39.8158 H         1 GLA         0.0648
     36 H4         17.1851   19.1259   38.0175 H         1 GLA         0.0647
     37 H5         18.7046   18.0665   39.5943 H         1 GLA         0.0647
     38 H6         19.4913   17.1495   36.7744 H         1 GLA         0.0584
     39 H7         17.8913   16.7919   37.5085 H         1 GLA         0.0584
     40 H8         19.6765   21.8490   40.6240 H         1 GLA         0.2101
     41 H9         17.8675   22.5324   38.7085 H         1 GLA         0.2100
     42 H10        18.1552   20.4001   36.2921 H         1 GLA         0.2100
     43 H11        20.4336   16.2110   38.6698 H         1 GLA         0.2095
     44 H12        19.9062   17.5515   42.1169 H         1 GLA         0.0607
     45 H13        24.5735   19.1606   42.6323 H         1 GLA         0.0654
     46 H14        22.9834   20.3932   41.2053 H         1 GLA         0.0591
     47 H15        24.1687   15.2618   45.2440 H         1 GLA         0.2158
     48 H16        20.9434   14.4138   45.7906 H         1 GLA         0.0568
     49 H17        22.6929   14.1790   46.1235 H         1 GLA         0.0568
     50 H18        21.0249   13.0760   43.8321 H         1 GLA         0.0446
     51 H19        21.9677   12.1674   45.0619 H         1 GLA         0.0446
     52 H20        24.4333   12.1748   44.9774 H         1 GLA         0.0557
     53 H21        22.0846   13.9541   41.8628 H         1 GLA         0.0557
     54 H22        26.4569   12.3969   43.6035 H         1 GLA         0.0599
     55 H23        24.1122   14.1959   40.4593 H         1 GLA         0.0599
     56 H24        26.3057   13.4222   41.3239 H         1 GLA         0.0559
@<TRIPOS>BOND
     1    1    2 1  
     2    1    7 1  
     3    1   11 1  
     4    2    3 1  
     5    2    8 1  
     6    3    4 1  
     7    3    9 1  
     8    4    5 1  
     9    4   10 1  
    10    5    6 1  
    11    5   11 1  
    12    6   12 1  
    13    7   13 1  
    14   13   14 ar 
    15   13   18 ar 
    16   14   15 ar 
    17   15   16 ar 
    18   15   19 1  
    19   16   17 ar 
    20   16   23 1  
    21   17   18 ar 
    22   19   20 2  
    23   19   21 am 
    24   21   22 1  
    25   21   25 1  
    26   22   23 am 
    27   23   24 2  
    28   25   26 1  
    29   26   27 1  
    30   27   28 ar 
    31   27   29 ar 
    32   28   30 ar 
    33   29   31 ar 
    34   30   32 ar 
    35   31   32 ar 
    36    1   33 1  
    37    2   34 1  
    38    3   35 1  
    39    4   36 1  
    40    5   37 1  
    41    6   38 1  
    42    6   39 1  
    43    8   40 1  
    44    9   41 1  
    45   10   42 1  
    46   12   43 1  
    47   14   44 1  
    48   17   45 1  
    49   18   46 1  
    50   22   47 1  
    51   25   48 1  
    52   25   49 1  
    53   26   50 1  
    54   26   51 1  
    55   28   52 1  
    56   29   53 1  
    57   30   54 1  
    58   31   55 1  
    59   32   56 1  
@<TRIPOS>SUBSTRUCTURE
     1 GLA         1

