### 
### Created by X-TOOL on Mon Sep 10 21:12:47 2018
### 

@<TRIPOS>MOLECULE
1eei_ligand
   36    37     1     0     0
SMALL
GAST_HUCK


@<TRIPOS>ATOM
      1 C1         30.7160   12.9270   23.7880 C.3       1 GAA         0.2096
      2 C2         29.7840   12.4910   22.6700 C.3       1 GAA         0.1385
      3 C3         28.6690   13.5590   22.4870 C.3       1 GAA         0.1145
      4 C4         27.9330   13.7030   23.8070 C.3       1 GAA         0.1119
      5 C5         28.9400   14.1120   24.8350 C.3       1 GAA         0.1134
      6 C6         28.2100   14.1280   26.1070 C.3       1 GAA         0.0730
      7 C7         32.3190   14.7310   24.1690 C.ar      1 GAA         0.1022
      8 C8         31.9220   15.5590   25.1870 C.ar      1 GAA         0.0095
      9 C9         32.9050   16.1220   26.0110 C.ar      1 GAA         0.1910
     10 C10        34.2730   15.8170   25.7550 C.ar      1 GAA        -0.0300
     11 C11        34.6330   14.9660   24.6960 C.ar      1 GAA        -0.0624
     12 C12        33.6370   14.4090   23.8810 C.ar      1 GAA        -0.0276
     13 N1         32.5140   17.0010   27.1130 N.2       1 GAA         0.3122
     14 O1         31.2920   14.1690   23.3400 O.3       1 GAA        -0.2838
     15 O2         30.5540   12.4130   21.5440 O.3       1 GAA        -0.3837
     16 O3         27.7490   13.3320   21.4380 O.3       1 GAA        -0.3864
     17 O4         27.2950   12.4870   24.1700 O.3       1 GAA        -0.3865
     18 O5         30.0060   13.1460   25.0030 O.3       1 GAA        -0.3369
     19 O6         29.1170   14.7840   26.9310 O.3       1 GAA        -0.3924
     20 O7         33.3610   17.5100   27.8780 O.2       1 GAA         0.1781
     21 O8         31.3020   17.2610   27.3350 O.2       1 GAA         0.1781
     22 H1         31.4981   12.1707   23.9504 H         1 GAA         0.0993
     23 H2         29.3330   11.5138   22.8974 H         1 GAA         0.0675
     24 H3         29.1699   14.5130   22.2655 H         1 GAA         0.0648
     25 H4         27.1673   14.4873   23.7144 H         1 GAA         0.0647
     26 H5         29.3569   15.1000   24.5900 H         1 GAA         0.0647
     27 H6         28.0033   13.1090   26.4660 H         1 GAA         0.0584
     28 H7         27.2656   14.6857   26.0228 H         1 GAA         0.0584
     29 H8         30.8720   15.7730   25.3504 H         1 GAA         0.0614
     30 H9         35.0446   16.2460   26.3839 H         1 GAA         0.0598
     31 H10        35.6769   14.7410   24.5099 H         1 GAA         0.0604
     32 H11        33.8878   13.7513   23.0566 H         1 GAA         0.0586
     33 H12        30.9336   13.2646   21.3617 H         1 GAA         0.2101
     34 H13        28.2155   13.2968   20.6112 H         1 GAA         0.2100
     35 H14        26.6696   12.2456   23.4969 H         1 GAA         0.2100
     36 H15        29.9269   14.2887   26.9661 H         1 GAA         0.2095
@<TRIPOS>BOND
     1   18    5 1  
     2    1   18 1  
     3    5    4 1  
     4    3    4 1  
     5    2    3 1  
     6    1    2 1  
     7    4   17 1  
     8    3   16 1  
     9    2   15 1  
    10   14    1 1  
    11    5    6 1  
    12    6   19 1  
    13    7    8 ar 
    14    7   12 ar 
    15   14    7 1  
    16    8    9 ar 
    17    9   10 ar 
    18    9   13 1  
    19   10   11 ar 
    20   11   12 ar 
    21   13   20 2  
    22   13   21 2  
    23    1   22 1  
    24    2   23 1  
    25    3   24 1  
    26    4   25 1  
    27    5   26 1  
    28    6   27 1  
    29    6   28 1  
    30    8   29 1  
    31   10   30 1  
    32   11   31 1  
    33   12   32 1  
    34   15   33 1  
    35   16   34 1  
    36   17   35 1  
    37   19   36 1  
@<TRIPOS>SUBSTRUCTURE
     1 GAA         1

