### 
### Created by X-TOOL on Mon Sep 10 21:12:47 2018
### 

@<TRIPOS>MOLECULE
1efi_ligand
   36    37     1     0     0
SMALL
GAST_HUCK


@<TRIPOS>ATOM
      1 C1        -20.1020   19.8870   14.9850 C.3       1 GAT         0.2069
      2 C2        -19.3160   21.0390   15.6030 C.3       1 GAT         0.1381
      3 C3        -17.8880   21.1030   15.1370 C.3       1 GAT         0.1144
      4 C4        -17.2380   19.7730   15.3920 C.3       1 GAT         0.1119
      5 C5        -18.0800   18.6550   14.7060 C.3       1 GAT         0.1133
      6 C6        -17.4690   17.2460   14.9760 C.3       1 GAT         0.0730
      7 C7        -21.1930   19.3240   12.8270 C.ar      1 GAT         0.0810
      8 C8        -20.8270   18.2720   11.9820 C.ar      1 GAT        -0.0442
      9 C9        -21.7940   17.5520   11.2680 C.ar      1 GAT        -0.0528
     10 C10       -23.1490   17.8910   11.4030 C.ar      1 GAT         0.0243
     11 C11       -23.5220   18.9330   12.2260 C.ar      1 GAT        -0.0528
     12 C12       -22.5430   19.6430   12.9380 C.ar      1 GAT        -0.0442
     13 N1        -24.1230   17.1540   10.7630 N.pl3     1 GAT        -0.3428
     14 O1        -20.2140   20.0540   13.5620 O.3       1 GAT        -0.2939
     15 O2        -19.9630   22.1910   15.0880 O.3       1 GAT        -0.3837
     16 O3        -17.1120   22.1190   15.7530 O.3       1 GAT        -0.3864
     17 O4        -17.1430   19.6060   16.7950 O.3       1 GAT        -0.3865
     18 O5        -19.4400   18.6730   15.2300 O.3       1 GAT        -0.3372
     19 O6        -18.3910   16.2450   14.5310 O.3       1 GAT        -0.3924
     20 H1        -21.1071   19.8566   15.4308 H         1 GAT         0.0988
     21 H2        -19.3557   20.9951   16.7014 H         1 GAT         0.0675
     22 H3        -17.8953   21.2956   14.0540 H         1 GAT         0.0648
     23 H4        -16.2257   19.7658   14.9617 H         1 GAT         0.0647
     24 H5        -18.1017   18.8386   13.6217 H         1 GAT         0.0647
     25 H6        -17.2844   17.1244   16.0535 H         1 GAT         0.0584
     26 H7        -16.5209   17.1439   14.4277 H         1 GAT         0.0584
     27 H8        -19.7804   18.0097   11.8778 H         1 GAT         0.0511
     28 H9        -21.4974   16.7386   10.6157 H         1 GAT         0.0489
     29 H10       -24.5675   19.2026   12.3225 H         1 GAT         0.0489
     30 H11       -22.8446   20.4566   13.5878 H         1 GAT         0.0511
     31 H12       -23.8562   16.3736   10.1460 H         1 GAT         0.1686
     32 H13       -25.1174   17.3839   10.9019 H         1 GAT         0.1686
     33 H14       -19.9153   22.1821   14.1392 H         1 GAT         0.2101
     34 H15       -17.5168   22.9640   15.5962 H         1 GAT         0.2100
     35 H16       -16.6220   20.3105   17.1621 H         1 GAT         0.2100
     36 H17       -19.2090   16.3363   15.0053 H         1 GAT         0.2095
@<TRIPOS>BOND
     1    1    2 1  
     2   14    1 1  
     3    1   18 1  
     4    2    3 1  
     5    2   15 1  
     6    3    4 1  
     7    3   16 1  
     8    5    4 1  
     9    4   17 1  
    10    5    6 1  
    11   18    5 1  
    12    6   19 1  
    13    7    8 ar 
    14    7   12 ar 
    15   14    7 1  
    16    8    9 ar 
    17    9   10 ar 
    18   10   11 ar 
    19   10   13 1  
    20   11   12 ar 
    21    1   20 1  
    22    2   21 1  
    23    3   22 1  
    24    4   23 1  
    25    5   24 1  
    26    6   25 1  
    27    6   26 1  
    28    8   27 1  
    29    9   28 1  
    30   11   29 1  
    31   12   30 1  
    32   13   31 1  
    33   13   32 1  
    34   15   33 1  
    35   16   34 1  
    36   17   35 1  
    37   19   36 1  
@<TRIPOS>SUBSTRUCTURE
     1 GAT         1

