### 
### Created by X-TOOL on Mon Sep 10 21:12:48 2018
### 

@<TRIPOS>MOLECULE
1efy_ligand
   33    35     1     0     0
SMALL
GAST_HUCK


@<TRIPOS>ATOM
      1 C1         40.6790   22.6620   21.8370 C.ar      1 BZC         0.0524
      2 N2         39.9280   22.8690   20.7290 N.2       1 BZC        -0.3001
      3 C3         38.6530   22.4260   20.9470 C.2       1 BZC         0.1401
      4 N4         38.6030   21.9240   22.2360 N.pl3     1 BZC        -0.2477
      5 C5         39.8310   22.0570   22.8020 C.ar      1 BZC         0.0880
      6 C7         40.3600   21.7320   24.0480 C.ar      1 BZC        -0.0341
      7 C4         42.0330   22.9360   22.1260 C.ar      1 BZC         0.0496
      8 C19        37.5710   22.5070   19.8910 C.ar      1 BZC         0.0265
      9 C2         42.5490   22.5980   23.3900 C.ar      1 BZC        -0.0556
     10 C6         41.7080   22.0010   24.3360 C.ar      1 BZC        -0.0676
     11 C8         42.8860   23.5850   21.1520 C.2       1 BZC         0.1960
     12 N1         42.4080   23.9600   19.9530 N.am      1 BZC        -0.3014
     13 O1         44.0640   23.8070   21.4100 O.2       1 BZC        -0.3886
     14 C11        37.9370   22.5990   18.5340 C.ar      1 BZC        -0.0157
     15 C12        36.2060   22.5290   20.2400 C.ar      1 BZC        -0.0547
     16 C13        36.9460   22.7190   17.5480 C.ar      1 BZC         0.0956
     17 O2         37.2660   22.7800   16.1600 O.3       1 BZC        -0.3204
     18 C15        35.5880   22.7470   17.9180 C.ar      1 BZC        -0.0288
     19 C17        35.2060   22.6510   19.2600 C.ar      1 BZC        -0.0649
     20 C18        38.5440   22.3580   15.7040 C.3       1 BZC         0.0594
     21 H1         37.7730   21.5173   22.6905 H         1 BZC         0.2309
     22 H2         39.7292   21.2697   24.7986 H         1 BZC         0.0589
     23 H3         43.5873   22.7978   23.6290 H         1 BZC         0.0584
     24 H4         42.1050   21.7410   25.3106 H         1 BZC         0.0561
     25 H5         43.0107   24.4070   19.2920 H         1 BZC         0.1805
     26 H6         41.4497   23.7919   19.7220 H         1 BZC         0.1805
     27 H7         38.9834   22.5771   18.2517 H         1 BZC         0.0584
     28 H8         35.9221   22.4504   21.2832 H         1 BZC         0.0574
     29 H9         34.8275   22.8444   17.1517 H         1 BZC         0.0579
     30 H10        34.1587   22.6703   19.5389 H         1 BZC         0.0601
     31 H11        38.6021   22.4790   14.6122 H         1 BZC         0.0577
     32 H12        38.6952   21.3000   15.9642 H         1 BZC         0.0577
     33 H13        39.3240   22.9684   16.1825 H         1 BZC         0.0577
@<TRIPOS>BOND
     1    1    7 ar 
     2    1    5 ar 
     3    1    2 1  
     4    2    3 2  
     5    3    8 1  
     6    3    4 1  
     7    4    5 1  
     8    5    6 ar 
     9    6   10 ar 
    10   10    9 ar 
    11    9    7 ar 
    12    7   11 1  
    13   11   13 2  
    14   11   12 am 
    15    8   15 ar 
    16    8   14 ar 
    17   14   16 ar 
    18   16   18 ar 
    19   16   17 1  
    20   17   20 1  
    21   18   19 ar 
    22   19   15 ar 
    23    4   21 1  
    24    6   22 1  
    25    9   23 1  
    26   10   24 1  
    27   12   25 1  
    28   12   26 1  
    29   14   27 1  
    30   15   28 1  
    31   18   29 1  
    32   19   30 1  
    33   20   31 1  
    34   20   32 1  
    35   20   33 1  
@<TRIPOS>SUBSTRUCTURE
     1 BZC         1

