### 
### Created by X-TOOL on Mon Sep 10 21:12:47 2018
### 

@<TRIPOS>MOLECULE
1ejn_ligand
   53    56     1     0     0
SMALL
GAST_HUCK


@<TRIPOS>ATOM
      1 C1         22.6160   11.2980   27.0970 C.3       1 AGB        -0.0382
      2 C2         22.7960   12.7650   27.5790 C.3       1 AGB        -0.0472
      3 C3         23.9920   10.5490   27.1350 C.3       1 AGB        -0.0244
      4 C4         21.6000   10.5700   28.0280 C.3       1 AGB        -0.0472
      5 C5         22.3300   12.0400   29.9730 C.3       1 AGB        -0.0472
      6 C6         23.3450   12.7570   29.0310 C.3       1 AGB        -0.0382
      7 C7         22.1400   10.5700   29.4910 C.3       1 AGB        -0.0382
      8 C8         24.7070   12.0000   29.0690 C.3       1 AGB        -0.0244
      9 C9         23.5050    9.8130   29.5460 C.3       1 AGB        -0.0244
     10 C10        24.5380   10.5130   28.6040 C.3       1 AGB         0.0542
     11 N1         27.2030    8.0200   29.0940 N.am      1 AGB        -0.2461
     12 C12        26.0830    8.5320   28.5490 C.2       1 AGB         0.2624
     13 N2         25.8560    9.8630   28.7070 N.am      1 AGB        -0.2668
     14 O1         25.3160    7.7840   27.9360 O.2       1 AGB        -0.4005
     15 C11        27.5820    6.6420   28.8350 C.3       1 AGB         0.1043
     16 C13        29.7790    5.4990   29.3810 C.ar      1 AGB         0.0179
     17 C14        29.0900    6.4880   28.6600 C.ar      1 AGB         0.0602
     18 C15        29.7990    7.3260   27.7680 C.ar      1 AGB         0.0179
     19 C16        31.1620    7.0740   27.5100 C.ar      1 AGB         0.0451
     20 C17        31.7920    5.9960   28.1480 C.ar      1 AGB         0.1556
     21 C18        31.1050    5.2080   29.0770 C.ar      1 AGB         0.0451
     22 N3         33.1960    5.8990   27.6390 N.pl3     1 AGB        -0.2414
     23 N4         33.2340    3.4270   27.5260 N.pl3     1 AGB        -0.3494
     24 C19        33.5800    4.6700   27.5130 C.cat     1 AGB         0.1642
     25 N5         34.8510    4.8760   27.2810 N.pl3     1 AGB        -0.3494
     26 H1         22.2315   11.2985   26.0664 H         1 AGB         0.0302
     27 H2         21.8258   13.2827   27.5546 H         1 AGB         0.0271
     28 H3         23.5060   13.2853   26.9193 H         1 AGB         0.0271
     29 H4         24.7119   11.0752   26.4909 H         1 AGB         0.0293
     30 H5         23.8576    9.5200   26.7703 H         1 AGB         0.0293
     31 H6         21.4681    9.5328   27.6863 H         1 AGB         0.0271
     32 H7         20.6328   11.0929   27.9946 H         1 AGB         0.0271
     33 H8         21.3642   12.5656   29.9426 H         1 AGB         0.0271
     34 H9         22.7170   12.0432   31.0027 H         1 AGB         0.0271
     35 H10        23.4917   13.7926   29.3716 H         1 AGB         0.0302
     36 H11        21.4169   10.0628   30.1466 H         1 AGB         0.0302
     37 H12        25.0968   12.0128   30.0975 H         1 AGB         0.0293
     38 H13        25.4187   12.5068   28.4008 H         1 AGB         0.0293
     39 H14        23.8865    9.8229   30.5777 H         1 AGB         0.0293
     40 H15        23.3590    8.7729   29.2190 H         1 AGB         0.0293
     41 H16        27.7769    8.5917   29.6803 H         1 AGB         0.1910
     42 H17        26.6437   10.4452   28.9085 H         1 AGB         0.1851
     43 H18        27.0813    6.3024   27.9163 H         1 AGB         0.0915
     44 H19        27.2572    6.0191   29.6814 H         1 AGB         0.0915
     45 H20        29.2762    4.9610   30.1765 H         1 AGB         0.0862
     46 H21        29.2974    8.1571   27.2856 H         1 AGB         0.0862
     47 H22        31.7166    7.7064   26.8262 H         1 AGB         0.0932
     48 H23        31.6035    4.3742   29.5580 H         1 AGB         0.0932
     49 H24        33.7860    6.7132   27.4157 H         1 AGB         0.2425
     50 H25        33.9388    2.6945   27.3599 H         1 AGB         0.1668
     51 H26        32.2530    3.1673   27.7025 H         1 AGB         0.1668
     52 H27        35.2200    5.8372   27.2517 H         1 AGB         0.1668
     53 H28        35.4826    4.0770   27.1276 H         1 AGB         0.1668
@<TRIPOS>BOND
     1    1    4 1  
     2    1    3 1  
     3    1    2 1  
     4    2    6 1  
     5    6    5 1  
     6    6    8 1  
     7    8   10 1  
     8   10   13 1  
     9   10    9 1  
    10   10    3 1  
    11    9    7 1  
    12    7    5 1  
    13    7    4 1  
    14   13   12 am 
    15   12   14 2  
    16   12   11 am 
    17   11   15 1  
    18   15   17 1  
    19   17   16 ar 
    20   17   18 ar 
    21   18   19 ar 
    22   19   20 ar 
    23   20   22 1  
    24   20   21 ar 
    25   21   16 ar 
    26   22   24 ar 
    27   24   23 ar 
    28   24   25 ar 
    29    1   26 1  
    30    2   27 1  
    31    2   28 1  
    32    3   29 1  
    33    3   30 1  
    34    4   31 1  
    35    4   32 1  
    36    5   33 1  
    37    5   34 1  
    38    6   35 1  
    39    7   36 1  
    40    8   37 1  
    41    8   38 1  
    42    9   39 1  
    43    9   40 1  
    44   11   41 1  
    45   13   42 1  
    46   15   43 1  
    47   15   44 1  
    48   16   45 1  
    49   18   46 1  
    50   19   47 1  
    51   21   48 1  
    52   22   49 1  
    53   23   50 1  
    54   23   51 1  
    55   25   52 1  
    56   25   53 1  
@<TRIPOS>SUBSTRUCTURE
     1 AGB         1

