### 
### Created by X-TOOL on Mon Sep 10 21:12:47 2018
### 

@<TRIPOS>MOLECULE
1ek1_ligand
   34    35     1     0     0
SMALL
GAST_HUCK


@<TRIPOS>ATOM
      1 C1        -41.1220 -112.5040  -27.0300 C.3       1 CIU        -0.0510
      2 C2        -41.9080 -112.5300  -28.3670 C.3       1 CIU        -0.0301
      3 C3        -42.3200 -114.0150  -28.7860 C.3       1 CIU         0.0430
      4 C4        -41.0400 -114.9820  -28.8970 C.3       1 CIU        -0.0301
      5 C5        -40.2090 -115.0200  -27.5390 C.3       1 CIU        -0.0510
      6 C6        -39.8890 -113.5370  -26.9840 C.3       1 CIU        -0.0529
      7 N1        -43.0510 -113.9290  -30.0920 N.am      1 CIU        -0.2647
      8 C7        -44.2300 -114.3770  -30.4060 C.2       1 CIU         0.2882
      9 O2        -44.9460 -114.6160  -29.4520 O.2       1 CIU        -0.3901
     10 N2        -44.5890 -114.5410  -31.6730 N.am      1 CIU        -0.2180
     11 C8        -45.7510 -115.0180  -32.3580 C.ar      1 CIU         0.0692
     12 I4        -49.9230 -116.6940  -34.8360 I         1 CIU        -0.0626
     13 C9        -46.8790 -115.4950  -31.6590 C.ar      1 CIU        -0.0387
     14 C10       -48.0160 -115.9610  -32.3430 C.ar      1 CIU        -0.0649
     15 C11       -48.0590 -115.9600  -33.7790 C.ar      1 CIU        -0.0066
     16 C12       -46.8840 -115.4630  -34.5060 C.ar      1 CIU        -0.0649
     17 C13       -45.7500 -115.0010  -33.7950 C.ar      1 CIU        -0.0387
     18 H1        -41.8159 -112.7551  -26.2143 H         1 CIU         0.0266
     19 H2        -40.7294 -111.4878  -26.8777 H         1 CIU         0.0266
     20 H3        -41.2776 -112.0990  -29.1587 H         1 CIU         0.0287
     21 H4        -42.8204 -111.9259  -28.2551 H         1 CIU         0.0287
     22 H5        -42.9964 -114.4267  -28.0224 H         1 CIU         0.0553
     23 H6        -40.3872 -114.6177  -29.7039 H         1 CIU         0.0287
     24 H7        -41.3823 -116.0002  -29.1337 H         1 CIU         0.0287
     25 H8        -39.2590 -115.5447  -27.7184 H         1 CIU         0.0266
     26 H9        -40.7914 -115.5648  -26.7813 H         1 CIU         0.0266
     27 H10       -39.5618 -113.6291  -25.9379 H         1 CIU         0.0265
     28 H11       -39.0714 -113.1172  -27.5884 H         1 CIU         0.0265
     29 H12       -42.5614 -113.4597  -30.8269 H         1 CIU         0.1856
     30 H13       -43.8677 -114.2616  -32.3068 H         1 CIU         0.2265
     31 H14       -46.8695 -115.5026  -30.5751 H         1 CIU         0.0507
     32 H15       -48.8686 -116.3246  -31.7810 H         1 CIU         0.0604
     33 H16       -46.8847 -115.4498  -35.5899 H         1 CIU         0.0604
     34 H17       -44.8831 -114.6353  -34.3334 H         1 CIU         0.0507
@<TRIPOS>BOND
     1    2    1 1  
     2    1    6 1  
     3    3    2 1  
     4    3    4 1  
     5    7    3 1  
     6    4    5 1  
     7    5    6 1  
     8    8    7 am 
     9    8    9 2  
    10   10    8 am 
    11   11   10 1  
    12   13   11 ar 
    13   11   17 ar 
    14   15   12 1  
    15   14   13 ar 
    16   14   15 ar 
    17   15   16 ar 
    18   16   17 ar 
    19    1   18 1  
    20    1   19 1  
    21    2   20 1  
    22    2   21 1  
    23    3   22 1  
    24    4   23 1  
    25    4   24 1  
    26    5   25 1  
    27    5   26 1  
    28    6   27 1  
    29    6   28 1  
    30    7   29 1  
    31   10   30 1  
    32   13   31 1  
    33   14   32 1  
    34   16   33 1  
    35   17   34 1  
@<TRIPOS>SUBSTRUCTURE
     1 CIU         1

