### 
### Created by X-TOOL on Mon Sep 10 21:12:47 2018
### 

@<TRIPOS>MOLECULE
1ek2_ligand
   54    54     1     0     0
SMALL
GAST_HUCK


@<TRIPOS>ATOM
      1 C1        -41.5100 -114.2050  -26.3170 C.3       1 CDU        -0.0510
      2 C2        -40.1420 -113.4190  -26.5350 C.3       1 CDU        -0.0529
      3 C3        -40.2520 -112.2430  -27.6010 C.3       1 CDU        -0.0510
      4 C4        -41.0750 -112.6590  -28.9050 C.3       1 CDU        -0.0301
      5 C5        -42.4770 -113.3250  -28.5940 C.3       1 CDU         0.0424
      6 C6        -42.2140 -114.6060  -27.6890 C.3       1 CDU        -0.0301
      7 N1        -43.1210 -113.6960  -29.9300 N.am      1 CDU        -0.2701
      8 C8        -44.3210 -114.2880  -30.2350 C.2       1 CDU         0.2576
      9 O         -45.0520 -114.5700  -29.2620 O.2       1 CDU        -0.4008
     10 N2        -44.8290 -114.6370  -31.4550 N.am      1 CDU        -0.2732
     11 C11       -46.1560 -115.3150  -31.6490 C.3       1 CDU         0.0312
     12 C12       -46.4210 -115.6030  -33.1340 C.3       1 CDU        -0.0330
     13 C13       -47.7870 -116.3240  -33.3400 C.3       1 CDU        -0.0513
     14 C14       -48.1860 -116.5080  -34.8550 C.3       1 CDU        -0.0530
     15 C15       -49.7300 -116.7880  -35.1160 C.3       1 CDU        -0.0531
     16 C16       -50.0870 -118.3070  -35.0610 C.3       1 CDU        -0.0531
     17 C17       -51.6050 -118.6020  -35.3160 C.3       1 CDU        -0.0531
     18 C18       -51.9280 -120.1410  -35.2540 C.3       1 CDU        -0.0533
     19 C19       -53.4380 -120.4610  -35.4970 C.3       1 CDU        -0.0559
     20 C20       -53.7500 -121.9800  -35.4350 C.3       1 CDU        -0.0653
     21 H1        -42.1962 -113.5647  -25.7434 H         1 CDU         0.0266
     22 H2        -41.3018 -115.1225  -25.7470 H         1 CDU         0.0266
     23 H3        -39.3807 -114.1334  -26.8814 H         1 CDU         0.0265
     24 H4        -39.8298 -112.9886  -25.5720 H         1 CDU         0.0265
     25 H5        -39.2366 -111.9499  -27.9059 H         1 CDU         0.0266
     26 H6        -40.7544 -111.3865  -27.1277 H         1 CDU         0.0266
     27 H7        -40.4715 -113.3757  -29.4813 H         1 CDU         0.0287
     28 H8        -41.2471 -111.7557  -29.5086 H         1 CDU         0.0287
     29 H9        -43.1262 -112.6194  -28.0548 H         1 CDU         0.0553
     30 H10       -43.1749 -115.0946  -27.4703 H         1 CDU         0.0287
     31 H11       -41.5635 -115.3045  -28.2357 H         1 CDU         0.0287
     32 H12       -42.5656 -113.4647  -30.7288 H         1 CDU         0.1848
     33 H13       -44.2847 -114.4286  -32.2676 H         1 CDU         0.1845
     34 H14       -46.9524 -114.6620  -31.2626 H         1 CDU         0.0517
     35 H15       -46.1584 -116.2644  -31.0935 H         1 CDU         0.0517
     36 H16       -45.6162 -116.2439  -33.5232 H         1 CDU         0.0284
     37 H17       -46.4319 -114.6518  -33.6864 H         1 CDU         0.0284
     38 H18       -48.5703 -115.7318  -32.8443 H         1 CDU         0.0266
     39 H19       -47.7285 -117.3184  -32.8733 H         1 CDU         0.0266
     40 H20       -47.6129 -117.3560  -35.2579 H         1 CDU         0.0265
     41 H21       -47.9102 -115.5897  -35.3942 H         1 CDU         0.0265
     42 H22       -49.9942 -116.4007  -36.1111 H         1 CDU         0.0265
     43 H23       -50.3173 -116.2610  -34.3496 H         1 CDU         0.0265
     44 H24       -49.8200 -118.6916  -34.0656 H         1 CDU         0.0265
     45 H25       -49.4970 -118.8313  -35.8271 H         1 CDU         0.0265
     46 H26       -51.8777 -118.2223  -36.3117 H         1 CDU         0.0265
     47 H27       -52.2005 -118.0836  -34.5501 H         1 CDU         0.0265
     48 H28       -51.6459 -120.5181  -34.2599 H         1 CDU         0.0265
     49 H29       -51.3331 -120.6548  -36.0235 H         1 CDU         0.0265
     50 H30       -53.7212 -120.0847  -36.4911 H         1 CDU         0.0263
     51 H31       -54.0339 -119.9485  -34.7274 H         1 CDU         0.0263
     52 H32       -54.8235 -122.1414  -35.6129 H         1 CDU         0.0230
     53 H33       -53.4802 -122.3695  -34.4423 H         1 CDU         0.0230
     54 H34       -53.1676 -122.5058  -36.2059 H         1 CDU         0.0230
@<TRIPOS>BOND
     1    1    2 1  
     2    1    6 1  
     3    2    3 1  
     4    3    4 1  
     5    4    5 1  
     6    5    6 1  
     7    5    7 1  
     8    7    8 am 
     9    8    9 2  
    10    8   10 am 
    11   10   11 1  
    12   11   12 1  
    13   12   13 1  
    14   13   14 1  
    15   14   15 1  
    16   15   16 1  
    17   16   17 1  
    18   17   18 1  
    19   18   19 1  
    20   19   20 1  
    21    1   21 1  
    22    1   22 1  
    23    2   23 1  
    24    2   24 1  
    25    3   25 1  
    26    3   26 1  
    27    4   27 1  
    28    4   28 1  
    29    5   29 1  
    30    6   30 1  
    31    6   31 1  
    32    7   32 1  
    33   10   33 1  
    34   11   34 1  
    35   11   35 1  
    36   12   36 1  
    37   12   37 1  
    38   13   38 1  
    39   13   39 1  
    40   14   40 1  
    41   14   41 1  
    42   15   42 1  
    43   15   43 1  
    44   16   44 1  
    45   16   45 1  
    46   17   46 1  
    47   17   47 1  
    48   18   48 1  
    49   18   49 1  
    50   19   50 1  
    51   19   51 1  
    52   20   52 1  
    53   20   53 1  
    54   20   54 1  
@<TRIPOS>SUBSTRUCTURE
     1 CDU         1

