### 
### Created by X-TOOL on Mon Sep 10 21:12:47 2018
### 

@<TRIPOS>MOLECULE
1ekb_ligand
   63    62     1     0     0
SMALL
GAST_HUCK


@<TRIPOS>ATOM
      1 N           6.4330   18.0640   16.5350 N.4       1 ASP         0.2391
      2 CA          7.2100   18.6820   15.4150 C.3       1 ASP         0.0764
      3 C           6.8510   17.9470   14.1220 C.2       1 ASP         0.2285
      4 O           5.6790   17.8310   13.7540 O.2       1 ASP        -0.3906
      5 CB          8.7140   18.5340   15.7110 C.3       1 ASP         0.0607
      6 CG          9.5930   19.3730   14.8000 C.2       1 ASP         0.0425
      7 OD1         9.0670   20.0920   13.9250 O.co2     1 ASP        -0.5686
      8 OD2        10.8290   19.3150   14.9630 O.co2     1 ASP        -0.5686
      9 N           7.8740   17.4720   13.4270 N.am      1 ASP        -0.2594
     10 CA          7.6770   16.7080   12.2120 C.3       1 ASP         0.1424
     11 C           7.6030   15.2690   12.7090 C.2       1 ASP         0.2057
     12 O           7.1980   14.3640   11.9790 O.2       1 ASP        -0.3943
     13 CB          8.8730   16.8780   11.2740 C.3       1 ASP         0.0406
     14 CG          8.9930   18.2900   10.7430 C.2       1 ASP         0.0393
     15 OD1         7.9540   18.8510   10.3270 O.co2     1 ASP        -0.5688
     16 OD2        10.1180   18.8380   10.7490 O.co2     1 ASP        -0.5688
     17 N           7.9850   15.0770   13.9710 N.am      1 ASP        -0.2621
     18 CA          7.9920   13.7550   14.5970 C.3       1 ASP         0.1422
     19 C           6.6310   13.0930   14.5570 C.2       1 ASP         0.2037
     20 O           5.6060   13.7510   14.6820 O.2       1 ASP        -0.3944
     21 CB          8.4400   13.8530   16.0560 C.3       1 ASP         0.0406
     22 CG          9.8860   14.2980   16.2060 C.2       1 ASP         0.0393
     23 OD1        10.7940   13.5950   15.7070 O.co2     1 ASP        -0.5688
     24 OD2        10.1100   15.3540   16.8400 O.co2     1 ASP        -0.5688
     25 N           6.6240   11.7800   14.3930 N.am      1 LYK        -0.2797
     26 CA          5.3690   11.0530   14.3560 C.3       1 LYK         0.0651
     27 C           5.1820   10.2220   15.6200 C.3       1 LYK         0.0671
     28 O           4.0490   10.0730   16.0840 O.3       1 LYK        -0.3927
     29 CB          5.3180   10.1570   13.1190 C.3       1 LYK        -0.0276
     30 CG          5.3500   10.9310   11.8090 C.3       1 LYK        -0.0461
     31 CD          5.5280   10.0060   10.6060 C.3       1 LYK        -0.0126
     32 CE          5.5960   10.8040    9.3090 C.3       1 LYK        -0.0354
     33 NZ          5.6630    9.9310    8.1000 N.4       1 LYK         0.2185
     34 H1          6.6555   18.5348   17.3981 H         1 ASP         0.2016
     35 H2          6.6739   17.0883   16.6128 H         1 ASP         0.2016
     36 H3          5.4464   18.1527   16.3485 H         1 ASP         0.2016
     37 H4          6.9543   19.7477   15.3212 H         1 ASP         0.1117
     38 H5          8.9916   17.4769   15.5866 H         1 ASP         0.0512
     39 H6          8.8966   18.8411   16.7513 H         1 ASP         0.0512
     40 H7          8.8048   17.6450   13.7489 H         1 ASP         0.1886
     41 H8          6.7505   17.0041   11.6984 H         1 ASP         0.0819
     42 H9          8.7561   16.1897   10.4240 H         1 ASP         0.0478
     43 H10         9.7920   16.6282   11.8244 H         1 ASP         0.0478
     44 H11         8.2779   15.8664   14.5105 H         1 ASP         0.1884
     45 H12         8.7045   13.1214   14.0485 H         1 ASP         0.0819
     46 H13         8.3275   12.8640   16.5242 H         1 ASP         0.0478
     47 H14         7.7948   14.5788   16.5726 H         1 ASP         0.0478
     48 H15         7.4880   11.2864   14.2941 H         1 LYK         0.1855
     49 H16         4.5469   11.7813   14.2949 H         1 LYK         0.0579
     50 H17         5.7909   10.6926   16.4060 H         1 LYK         0.0580
     51 H18         5.5746    9.2174   15.4042 H         1 LYK         0.0580
     52 H19         3.6840   10.9220   16.3040 H         1 LYK         0.2095
     53 H20         4.3895    9.5682   13.1532 H         1 LYK         0.0288
     54 H21         6.1835    9.4786   13.1441 H         1 LYK         0.0288
     55 H22         6.1877   11.6434   11.8370 H         1 LYK         0.0268
     56 H23         4.4041   11.4814   11.6977 H         1 LYK         0.0268
     57 H24         4.6763    9.3117   10.5569 H         1 LYK         0.0317
     58 H25         6.4603    9.4348   10.7262 H         1 LYK         0.0317
     59 H26         6.4927   11.4406    9.3338 H         1 LYK         0.0813
     60 H27         4.6990   11.4366    9.2373 H         1 LYK         0.0813
     61 H28         5.7062   10.5054    7.2728 H         1 LYK         0.1994
     62 H29         4.8422    9.3472    8.0611 H         1 LYK         0.1994
     63 H30         6.4859    9.3509    8.1496 H         1 LYK         0.1994
@<TRIPOS>BOND
     1    1    2 1  
     2    2    3 1  
     3    2    5 1  
     4    3    4 2  
     5    3    9 am 
     6    5    6 1  
     7    6    7 ar 
     8    6    8 ar 
     9    9   10 1  
    10   10   11 1  
    11   10   13 1  
    12   11   12 2  
    13   11   17 am 
    14   13   14 1  
    15   14   15 ar 
    16   14   16 ar 
    17   17   18 1  
    18   18   19 1  
    19   18   21 1  
    20   19   20 2  
    21   19   25 am 
    22   21   22 1  
    23   22   23 ar 
    24   22   24 ar 
    25   25   26 1  
    26   26   27 1  
    27   26   29 1  
    28   27   28 1  
    29   29   30 1  
    30   30   31 1  
    31   31   32 1  
    32   32   33 1  
    33    1   34 1  
    34    1   35 1  
    35    1   36 1  
    36    2   37 1  
    37    5   38 1  
    38    5   39 1  
    39    9   40 1  
    40   10   41 1  
    41   13   42 1  
    42   13   43 1  
    43   17   44 1  
    44   18   45 1  
    45   21   46 1  
    46   21   47 1  
    47   25   48 1  
    48   26   49 1  
    49   27   50 1  
    50   27   51 1  
    51   28   52 1  
    52   29   53 1  
    53   29   54 1  
    54   30   55 1  
    55   30   56 1  
    56   31   57 1  
    57   31   58 1  
    58   32   59 1  
    59   32   60 1  
    60   33   61 1  
    61   33   62 1  
    62   33   63 1  
@<TRIPOS>SUBSTRUCTURE
     1 ASP         1

