### 
### Created by X-TOOL on Mon Sep 10 21:12:45 2018
### 

@<TRIPOS>MOLECULE
1ela_ligand
   64    65     1     0     0
SMALL
GAST_HUCK


@<TRIPOS>ATOM
      1 C          41.0260   23.4570   37.5520 C.2       1 0Z1         0.3031
      2 O          40.5080   23.4910   36.4290 O.2       1 0Z1        -0.3349
      3 CT         41.3570   24.7770   38.3540 C.3       1 0Z1         0.4751
      4 F1         40.3210   25.6100   38.3690 F         1 0Z1        -0.1699
      5 F2         41.6550   24.6140   39.6510 F         1 0Z1        -0.1699
      6 F3         42.3640   25.4820   37.8480 F         1 0Z1        -0.1699
      7 N          41.3550   22.2730   38.1070 N.am      1 0Z1        -0.2576
      8 CA         40.9500   20.9670   37.6240 C.3       1 0Z1         0.1315
      9 C          39.4240   20.9590   37.3850 C.2       1 0Z1         0.2066
     10 O          38.7000   21.3740   38.2770 O.2       1 0Z1        -0.3942
     11 CB         41.4240   19.9850   38.7160 C.3       1 0Z1        -0.0121
     12 CG         40.6820   18.6700   38.8800 C.3       1 0Z1        -0.0440
     13 CD         41.5880   17.4430   38.7380 C.3       1 0Z1        -0.0124
     14 CE         40.6760   16.2380   38.4700 C.3       1 0Z1        -0.0354
     15 NZ         41.4070   14.9900   38.4870 N.4       1 0Z1         0.2185
     16 N          38.8360   20.5900   36.2350 N.am      1 0Z1        -0.2493
     17 CA         37.3820   20.3770   36.1140 C.3       1 0Z1         0.1391
     18 C          36.9250   19.0660   36.7880 C.2       1 0Z1         0.2276
     19 O          36.9440   17.9560   36.2220 O.2       1 0Z1        -0.3832
     20 CB         37.1460   20.4590   34.6080 C.3       1 0Z1        -0.0099
     21 CG         38.4480   19.9870   33.9860 C.3       1 0Z1        -0.0281
     22 CD         39.5430   20.4350   34.9620 C.3       1 0Z1         0.0370
     23 N1         36.5850   19.3630   38.0670 N.am      1 0Z1        -0.2359
     24 C1         36.2230   18.4440   39.0040 C.ar      1 0Z1         0.0597
     25 C2         36.6700   17.1060   38.9640 C.ar      1 0Z1        -0.0473
     26 C3         36.3750   16.2270   40.0160 C.ar      1 0Z1        -0.0730
     27 C4         35.6300   16.6700   41.1260 C.ar      1 0Z1        -0.0550
     28 C5         35.1810   17.9950   41.1620 C.ar      1 0Z1        -0.0730
     29 C6         35.4700   18.8690   40.1080 C.ar      1 0Z1        -0.0473
     30 C1'        35.3340   15.7380   42.3120 C.3       1 0Z1        -0.0199
     31 C2'        36.1110   14.4050   42.2320 C.3       1 0Z1        -0.0548
     32 C3'        33.8640   15.4850   42.2850 C.3       1 0Z1        -0.0548
     33 H1         41.9298   22.2977   38.9249 H         1 0Z1         0.1891
     34 H2         41.4548   20.7332   36.6751 H         1 0Z1         0.0802
     35 H3         41.3622   20.5147   39.6780 H         1 0Z1         0.0313
     36 H4         42.4742   19.7403   38.4989 H         1 0Z1         0.0313
     37 H5         39.8957   18.6144   38.1128 H         1 0Z1         0.0269
     38 H6         40.2217   18.6507   39.8789 H         1 0Z1         0.0269
     39 H7         42.1585   17.2857   39.6653 H         1 0Z1         0.0317
     40 H8         42.2845   17.5833   37.8983 H         1 0Z1         0.0317
     41 H9         40.2063   16.3608   37.4830 H         1 0Z1         0.0813
     42 H10        39.8965   16.2034   39.2453 H         1 0Z1         0.0813
     43 H11        40.7733   14.2270   38.3074 H         1 0Z1         0.1994
     44 H12        41.8366   14.8645   39.3902 H         1 0Z1         0.1994
     45 H13        42.1205   15.0088   37.7752 H         1 0Z1         0.1994
     46 H14        36.8447   21.2011   36.6061 H         1 0Z1         0.0807
     47 H15        36.9248   21.4933   34.3060 H         1 0Z1         0.0313
     48 H16        36.3141   19.8040   34.3097 H         1 0Z1         0.0313
     49 H17        38.4503   18.8922   33.8792 H         1 0Z1         0.0287
     50 H18        38.5957   20.4519   33.0001 H         1 0Z1         0.0287
     51 H19        40.3318   19.6726   35.0424 H         1 0Z1         0.0524
     52 H20        39.9866   21.3892   34.6416 H         1 0Z1         0.0524
     53 H21        36.6014   20.3246   38.3410 H         1 0Z1         0.2234
     54 H22        37.2451   16.7555   38.1146 H         1 0Z1         0.0487
     55 H23        36.7223   15.2010   39.9746 H         1 0Z1         0.0520
     56 H24        34.6061   18.3463   42.0112 H         1 0Z1         0.0520
     57 H25        35.1064   19.8895   40.1455 H         1 0Z1         0.0487
     58 H26        35.6071   16.2448   43.2493 H         1 0Z1         0.0428
     59 H27        35.8604   13.7817   43.1030 H         1 0Z1         0.0251
     60 H28        37.1917   14.6102   42.2267 H         1 0Z1         0.0251
     61 H29        35.8341   13.8740   41.3093 H         1 0Z1         0.0251
     62 H30        33.3260   16.4427   42.3426 H         1 0Z1         0.0251
     63 H31        33.5845   14.8553   43.1425 H         1 0Z1         0.0251
     64 H32        33.5976   14.9705   41.3500 H         1 0Z1         0.0251
@<TRIPOS>BOND
     1    7    8 1  
     2    8   11 1  
     3    8    9 1  
     4    9   10 2  
     5   11   12 1  
     6   12   13 1  
     7   13   14 1  
     8   14   15 1  
     9   17   18 1  
    10   17   20 1  
    11   16   17 1  
    12   16   22 1  
    13   22   21 1  
    14   21   20 1  
    15   18   19 2  
    16    9   16 am 
    17    1    2 2  
    18    1    3 1  
    19    7    1 am 
    20    3    4 1  
    21    3    5 1  
    22    3    6 1  
    23   18   23 am 
    24   23   24 1  
    25   24   25 ar 
    26   24   29 ar 
    27   25   26 ar 
    28   26   27 ar 
    29   27   28 ar 
    30   27   30 1  
    31   28   29 ar 
    32   30   31 1  
    33   30   32 1  
    34    7   33 1  
    35    8   34 1  
    36   11   35 1  
    37   11   36 1  
    38   12   37 1  
    39   12   38 1  
    40   13   39 1  
    41   13   40 1  
    42   14   41 1  
    43   14   42 1  
    44   15   43 1  
    45   15   44 1  
    46   15   45 1  
    47   17   46 1  
    48   20   47 1  
    49   20   48 1  
    50   21   49 1  
    51   21   50 1  
    52   22   51 1  
    53   22   52 1  
    54   23   53 1  
    55   25   54 1  
    56   26   55 1  
    57   28   56 1  
    58   29   57 1  
    59   30   58 1  
    60   31   59 1  
    61   31   60 1  
    62   31   61 1  
    63   32   62 1  
    64   32   63 1  
    65   32   64 1  
@<TRIPOS>SUBSTRUCTURE
     1 0Z1         1

