### 
### Created by X-TOOL on Mon Sep 10 21:12:45 2018
### 

@<TRIPOS>MOLECULE
1elb_ligand
   69    69     1     0     0
SMALL
GAST_HUCK


@<TRIPOS>ATOM
      1 C          43.2350   20.8140   35.7780 C.2       1 0Z4         0.3031
      2 O          42.9080   19.9720   34.9160 O.2       1 0Z4        -0.3349
      3 CT         44.0100   22.1540   35.4490 C.3       1 0Z4         0.4751
      4 F1         45.1590   22.3250   36.0450 F         1 0Z4        -0.1699
      5 F2         44.2650   22.4010   34.1750 F         1 0Z4        -0.1699
      6 F3         43.2850   23.1710   35.8590 F         1 0Z4        -0.1699
      7 N          43.0130   20.5400   37.0850 N.am      1 0Z4        -0.2576
      8 CA         42.0630   19.5230   37.5010 C.3       1 0Z4         0.1313
      9 C          41.0600   20.3810   38.2600 C.2       1 0Z4         0.2041
     10 O          40.6280   20.0570   39.3690 O.2       1 0Z4        -0.3944
     11 CB         42.6420   18.4860   38.4520 C.3       1 0Z4        -0.0121
     12 CG         42.4980   17.0670   37.9460 C.3       1 0Z4        -0.0440
     13 CD         41.0750   16.5680   38.1170 C.3       1 0Z4        -0.0124
     14 CE         40.9830   15.0620   37.8910 C.3       1 0Z4        -0.0354
     15 NZ         39.6060   14.6180   38.0590 N.4       1 0Z4         0.2185
     16 N          40.7660   21.5380   37.6270 N.am      1 0Z4        -0.2632
     17 CA         39.7140   22.4420   38.0170 C.3       1 0Z4         0.1366
     18 C          38.5900   21.6150   37.3970 C.2       1 0Z4         0.2275
     19 O          38.1910   21.7400   36.2420 O.2       1 0Z4        -0.3832
     20 CB         39.9830   23.8480   37.3740 C.3       1 0Z4        -0.0096
     21 CG         41.0410   24.8200   37.9770 C.3       1 0Z4        -0.0425
     22 CD1        40.4360   26.1060   38.4180 C.3       1 0Z4        -0.0625
     23 CD2        41.4610   24.4040   39.3330 C.3       1 0Z4        -0.0625
     24 N1         38.0760   20.8720   38.3950 N.am      1 0Z4        -0.2359
     25 C1         37.5070   19.6690   38.1880 C.ar      1 0Z4         0.0597
     26 C2         36.7500   19.3150   37.0760 C.ar      1 0Z4        -0.0473
     27 C3         36.3940   17.9830   36.8960 C.ar      1 0Z4        -0.0730
     28 C4         36.7790   17.0180   37.8240 C.ar      1 0Z4        -0.0550
     29 C5         37.5040   17.3890   38.9220 C.ar      1 0Z4        -0.0730
     30 C6         37.8600   18.6990   39.0980 C.ar      1 0Z4        -0.0473
     31 C1'        36.4700   15.5280   37.6480 C.3       1 0Z4        -0.0199
     32 C2'        36.6970   15.1050   36.1960 C.3       1 0Z4        -0.0548
     33 C3'        35.0870   15.2850   38.2240 C.3       1 0Z4        -0.0548
     34 H1         43.5160   21.0509   37.7821 H         1 0Z4         0.1891
     35 H2         41.6121   19.0187   36.6336 H         1 0Z4         0.0802
     36 H3         42.1211   18.5674   39.4174 H         1 0Z4         0.0313
     37 H4         43.7117   18.6999   38.5933 H         1 0Z4         0.0313
     38 H5         43.1784   16.4131   38.5113 H         1 0Z4         0.0269
     39 H6         42.7633   17.0374   36.8789 H         1 0Z4         0.0269
     40 H7         40.4265   17.0793   37.3903 H         1 0Z4         0.0317
     41 H8         40.7350   16.7983   39.1375 H         1 0Z4         0.0317
     42 H9         41.6244   14.5442   38.6193 H         1 0Z4         0.0813
     43 H10        41.3206   14.8250   36.8713 H         1 0Z4         0.0813
     44 H11        39.5531   13.6227   37.9083 H         1 0Z4         0.1994
     45 H12        39.0167   15.0906   37.3916 H         1 0Z4         0.1994
     46 H13        39.2952   14.8332   38.9934 H         1 0Z4         0.1994
     47 H14        41.3182   21.7846   36.8306 H         1 0Z4         0.1884
     48 H15        39.5999   22.5497   39.1057 H         1 0Z4         0.0805
     49 H16        39.0232   24.3853   37.3854 H         1 0Z4         0.0315
     50 H17        40.2870   23.6624   36.3333 H         1 0Z4         0.0315
     51 H18        41.8801   24.9483   37.2774 H         1 0Z4         0.0298
     52 H19        41.2195   26.7559   38.8347 H         1 0Z4         0.0232
     53 H20        39.6756   25.9086   39.1879 H         1 0Z4         0.0232
     54 H21        39.9658   26.6042   37.5574 H         1 0Z4         0.0232
     55 H22        41.9627   23.4266   39.2777 H         1 0Z4         0.0232
     56 H23        40.5770   24.3261   39.9829 H         1 0Z4         0.0232
     57 H24        42.1557   25.1498   39.7467 H         1 0Z4         0.0232
     58 H25        38.1184   21.2280   39.3285 H         1 0Z4         0.2234
     59 H26        36.4417   20.0676   36.3593 H         1 0Z4         0.0487
     60 H27        35.8130   17.6936   36.0278 H         1 0Z4         0.0520
     61 H28        37.7972   16.6451   39.6539 H         1 0Z4         0.0520
     62 H29        38.4332   18.9787   39.9745 H         1 0Z4         0.0487
     63 H30        37.1810   14.9506   38.2572 H         1 0Z4         0.0428
     64 H31        36.4711   14.0340   36.0865 H         1 0Z4         0.0251
     65 H32        37.7460   15.2885   35.9203 H         1 0Z4         0.0251
     66 H33        36.0372   15.6881   35.5368 H         1 0Z4         0.0251
     67 H34        35.0583   15.6317   39.2675 H         1 0Z4         0.0251
     68 H35        34.8588   14.2095   38.1886 H         1 0Z4         0.0251
     69 H36        34.3415   15.8377   37.6334 H         1 0Z4         0.0251
@<TRIPOS>BOND
     1    1    3 1  
     2    1    2 2  
     3    3    6 1  
     4    3    5 1  
     5    3    4 1  
     6    9    8 1  
     7    8   11 1  
     8    8    7 1  
     9   11   12 1  
    10   12   13 1  
    11   13   14 1  
    12   14   15 1  
    13    9   10 2  
    14   18   17 1  
    15   17   20 1  
    16   17   16 1  
    17   20   21 1  
    18   21   23 1  
    19   21   22 1  
    20   18   19 2  
    21   24   25 1  
    22   25   30 ar 
    23   25   26 ar 
    24   26   27 ar 
    25   27   28 ar 
    26   28   31 1  
    27   29   28 ar 
    28   30   29 ar 
    29   31   33 1  
    30   31   32 1  
    31   16    9 am 
    32    7    1 am 
    33   18   24 am 
    34    7   34 1  
    35    8   35 1  
    36   11   36 1  
    37   11   37 1  
    38   12   38 1  
    39   12   39 1  
    40   13   40 1  
    41   13   41 1  
    42   14   42 1  
    43   14   43 1  
    44   15   44 1  
    45   15   45 1  
    46   15   46 1  
    47   16   47 1  
    48   17   48 1  
    49   20   49 1  
    50   20   50 1  
    51   21   51 1  
    52   22   52 1  
    53   22   53 1  
    54   22   54 1  
    55   23   55 1  
    56   23   56 1  
    57   23   57 1  
    58   24   58 1  
    59   26   59 1  
    60   27   60 1  
    61   29   61 1  
    62   30   62 1  
    63   31   63 1  
    64   32   64 1  
    65   32   65 1  
    66   32   66 1  
    67   33   67 1  
    68   33   68 1  
    69   33   69 1  
@<TRIPOS>SUBSTRUCTURE
     1 0Z4         1

