### 
### Created by X-TOOL on Mon Sep 10 21:12:45 2018
### 

@<TRIPOS>MOLECULE
1elc_ligand
   70    71     1     0     0
SMALL
GAST_HUCK


@<TRIPOS>ATOM
      1 C          42.8050   20.7570   36.2120 C.2       1 0Z3         0.3031
      2 O          43.2220   19.6600   35.7850 O.2       1 0Z3        -0.3349
      3 CT         43.3350   22.1690   35.5980 C.3       1 0Z3         0.4751
      4 F1         44.5760   22.5880   35.9040 F         1 0Z3        -0.1699
      5 F2         43.3400   22.1380   34.2310 F         1 0Z3        -0.1699
      6 F3         42.5450   23.2360   35.9070 F         1 0Z3        -0.1699
      7 N          41.9850   20.7120   37.3110 N.am      1 0Z3        -0.2576
      8 CA         41.1470   19.5470   37.7390 C.3       1 0Z3         0.1313
      9 C          39.9350   20.2470   38.3590 C.2       1 0Z3         0.2042
     10 O          39.5500   20.1350   39.5140 O.2       1 0Z3        -0.3944
     11 CB         41.6950   18.6340   38.8360 C.3       1 0Z3        -0.0121
     12 CG         41.7310   17.1930   38.3090 C.3       1 0Z3        -0.0440
     13 CD         42.0520   16.1940   39.4090 C.3       1 0Z3        -0.0124
     14 CE         42.4190   14.8100   38.8540 C.3       1 0Z3        -0.0354
     15 NZ         43.7640   14.7820   38.3030 N.4       1 0Z3         0.2185
     16 N          39.2820   20.8490   37.3710 N.am      1 0Z3        -0.2614
     17 CA         38.3090   21.8990   37.4870 C.3       1 0Z3         0.1458
     18 C          36.8880   21.5760   36.9920 C.2       1 0Z3         0.2295
     19 O          36.1860   20.7300   37.5860 O.2       1 0Z3        -0.3830
     20 CB         39.0710   22.9630   36.7310 C.3       1 0Z3         0.0219
     21 CG         39.5100   24.0670   37.6060 C.ar      1 0Z3        -0.0385
     22 CD1        40.4130   23.8390   38.6290 C.ar      1 0Z3        -0.0601
     23 CD2        38.9750   25.3110   37.3900 C.ar      1 0Z3        -0.0601
     24 CE1        40.7890   24.8850   39.4520 C.ar      1 0Z3        -0.0686
     25 CE2        39.3470   26.3550   38.2160 C.ar      1 0Z3        -0.0686
     26 CZ         40.2460   26.1450   39.2320 C.ar      1 0Z3        -0.0687
     27 N1         36.5460   22.4810   36.0050 N.am      1 0Z3        -0.2357
     28 C1         35.5440   22.3810   35.1150 C.ar      1 0Z3         0.0597
     29 C2         35.2290   21.1470   34.5420 C.ar      1 0Z3        -0.0473
     30 C3         34.3760   21.0890   33.4530 C.ar      1 0Z3        -0.0730
     31 C4         33.8090   22.2580   32.9150 C.ar      1 0Z3        -0.0550
     32 C5         34.1070   23.5020   33.4970 C.ar      1 0Z3        -0.0730
     33 C6         34.9690   23.5580   34.5920 C.ar      1 0Z3        -0.0473
     34 C1'        32.9050   22.1250   31.6650 C.3       1 0Z3        -0.0199
     35 C2'        33.7410   21.4370   30.5710 C.3       1 0Z3        -0.0548
     36 C3'        32.3370   23.4620   31.2430 C.3       1 0Z3        -0.0548
     37 H1         41.9430   21.5338   37.8793 H         1 0Z3         0.1891
     38 H2         40.8789   18.9380   36.8631 H         1 0Z3         0.0802
     39 H3         41.0439   18.6876   39.7210 H         1 0Z3         0.0313
     40 H4         42.7117   18.9532   39.1088 H         1 0Z3         0.0313
     41 H5         42.5008   17.1197   37.5267 H         1 0Z3         0.0269
     42 H6         40.7483   16.9465   37.8807 H         1 0Z3         0.0269
     43 H7         41.1718   16.0912   40.0607 H         1 0Z3         0.0317
     44 H8         42.9004   16.5755   39.9961 H         1 0Z3         0.0317
     45 H9         41.7048   14.5451   38.0604 H         1 0Z3         0.0813
     46 H10        42.3534   14.0726   39.6675 H         1 0Z3         0.0813
     47 H11        43.9637   13.8588   37.9510 H         1 0Z3         0.1994
     48 H12        44.4276   15.0173   39.0243 H         1 0Z3         0.1994
     49 H13        43.8333   15.4503   37.5516 H         1 0Z3         0.1994
     50 H14        39.4910   20.5366   36.4443 H         1 0Z3         0.1885
     51 H15        38.2052   22.1957   38.5411 H         1 0Z3         0.0828
     52 H16        38.4201   23.3727   35.9446 H         1 0Z3         0.0474
     53 H17        39.9577   22.5030   36.2704 H         1 0Z3         0.0474
     54 H18        40.8229   22.8476   38.7844 H         1 0Z3         0.0557
     55 H19        38.2701   25.4734   36.5826 H         1 0Z3         0.0557
     56 H20        41.4970   24.7242   40.2570 H         1 0Z3         0.0599
     57 H21        38.9276   27.3425   38.0610 H         1 0Z3         0.0599
     58 H22        40.5357   26.9719   39.8702 H         1 0Z3         0.0559
     59 H23        37.1091   23.3053   35.9463 H         1 0Z3         0.2235
     60 H24        35.6518   20.2357   34.9493 H         1 0Z3         0.0487
     61 H25        34.1418   20.1284   33.0086 H         1 0Z3         0.0520
     62 H26        33.6705   24.4105   33.0981 H         1 0Z3         0.0520
     63 H27        35.1993   24.5153   35.0455 H         1 0Z3         0.0487
     64 H28        32.0561   21.4707   31.9126 H         1 0Z3         0.0428
     65 H29        33.1324   21.3231   29.6618 H         1 0Z3         0.0251
     66 H30        34.0622   20.4459   30.9238 H         1 0Z3         0.0251
     67 H31        34.6258   22.0504   30.3455 H         1 0Z3         0.0251
     68 H32        31.7548   23.8911   32.0718 H         1 0Z3         0.0251
     69 H33        31.6835   23.3234   30.3691 H         1 0Z3         0.0251
     70 H34        33.1596   24.1437   30.9813 H         1 0Z3         0.0251
@<TRIPOS>BOND
     1    7    8 1  
     2    8   11 1  
     3    8    9 1  
     4    9   10 2  
     5   11   12 1  
     6   12   13 1  
     7   13   14 1  
     8   14   15 1  
     9   16   17 1  
    10   17   20 1  
    11   17   18 1  
    12   18   19 2  
    13   20   21 1  
    14   21   22 ar 
    15   21   23 ar 
    16   23   25 ar 
    17   25   26 ar 
    18   24   26 ar 
    19   22   24 ar 
    20    9   16 am 
    21    1    2 2  
    22    1    3 1  
    23    7    1 am 
    24    3    4 1  
    25    3    5 1  
    26    3    6 1  
    27   18   27 am 
    28   27   28 1  
    29   28   29 ar 
    30   28   33 ar 
    31   29   30 ar 
    32   30   31 ar 
    33   31   32 ar 
    34   31   34 1  
    35   32   33 ar 
    36   34   35 1  
    37   34   36 1  
    38    7   37 1  
    39    8   38 1  
    40   11   39 1  
    41   11   40 1  
    42   12   41 1  
    43   12   42 1  
    44   13   43 1  
    45   13   44 1  
    46   14   45 1  
    47   14   46 1  
    48   15   47 1  
    49   15   48 1  
    50   15   49 1  
    51   16   50 1  
    52   17   51 1  
    53   20   52 1  
    54   20   53 1  
    55   22   54 1  
    56   23   55 1  
    57   24   56 1  
    58   25   57 1  
    59   26   58 1  
    60   27   59 1  
    61   29   60 1  
    62   30   61 1  
    63   32   62 1  
    64   33   63 1  
    65   34   64 1  
    66   35   65 1  
    67   35   66 1  
    68   35   67 1  
    69   36   68 1  
    70   36   69 1  
    71   36   70 1  
@<TRIPOS>SUBSTRUCTURE
     1 0Z3         1

