### 
### Created by X-TOOL on Mon Sep 10 21:12:47 2018
### 

@<TRIPOS>MOLECULE
1elr_ligand
   82    81     1     0     0
SMALL
GAST_HUCK


@<TRIPOS>ATOM
      1 C          29.7870    6.1460   14.2530 C.2       1 ACE         0.1751
      2 O          29.5220    5.6090   13.1770 O.2       1 ACE        -0.3972
      3 CH3        31.0170    7.0030   14.4080 C.3       1 ACE         0.0258
      4 N          29.0240    6.0220   15.3310 N.am      1 MET        -0.2658
      5 CA         27.8120    5.2070   15.3320 C.3       1 MET         0.1316
      6 C          26.6740    5.8570   14.5360 C.2       1 MET         0.2039
      7 O          26.6340    7.0800   14.3640 O.2       1 MET        -0.3944
      8 CB         27.3210    5.0030   16.7750 C.3       1 MET        -0.0034
      9 CG         28.3160    4.3950   17.7330 C.3       1 MET        -0.0024
     10 SD         27.6370    4.3870   19.4090 S.3       1 MET        -0.1639
     11 CE         26.4770    3.0390   19.2830 C.3       1 MET        -0.0181
     12 N          25.7430    5.0300   14.0640 N.am      1 GLU        -0.2636
     13 CA         24.5780    5.5300   13.3420 C.3       1 GLU         0.1325
     14 C          23.8740    6.5100   14.2830 C.2       1 GLU         0.2040
     15 O          23.8990    6.3250   15.4980 O.2       1 GLU        -0.3944
     16 CB         23.6290    4.3700   12.9940 C.3       1 GLU        -0.0008
     17 CG         24.1060    3.5000   11.8420 C.3       1 GLU         0.0044
     18 CD         24.1450    4.2770   10.5440 C.2       1 GLU         0.0350
     19 OE1        23.0660    4.5980   10.0060 O.co2     1 GLU        -0.5690
     20 OE2        25.2520    4.5890   10.0680 O.co2     1 GLU        -0.5690
     21 N          23.2470    7.5410   13.7280 N.am      1 GLU        -0.2636
     22 CA         22.5480    8.5480   14.5320 C.3       1 GLU         0.1325
     23 C          21.1190    8.1540   14.8850 C.2       1 GLU         0.2040
     24 O          20.3790    7.6990   14.0230 O.2       1 GLU        -0.3944
     25 CB         22.4880    9.8810   13.7700 C.3       1 GLU        -0.0008
     26 CG         23.8170   10.6070   13.6400 C.3       1 GLU         0.0044
     27 CD         23.7290   11.8320   12.7290 C.2       1 GLU         0.0350
     28 OE1        22.7620   12.6220   12.8640 O.co2     1 GLU        -0.5690
     29 OE2        24.6360   12.0030   11.8820 O.co2     1 GLU        -0.5690
     30 N          20.7260    8.3320   16.1460 N.am      1 VAL        -0.2635
     31 CA         19.3450    8.0420   16.5340 C.3       1 VAL         0.1332
     32 C          18.6250    9.3680   16.7440 C.2       1 VAL         0.2037
     33 O          19.2470   10.3740   17.1100 O.2       1 VAL        -0.3944
     34 CB         19.2250    7.1830   17.8150 C.3       1 VAL        -0.0063
     35 CG1        19.6210    5.7350   17.5080 C.3       1 VAL        -0.0584
     36 CG2        20.0750    7.7570   18.9310 C.3       1 VAL        -0.0584
     37 N          17.3160    9.3620   16.5120 N.am      1 ASP        -0.2679
     38 CA         16.4950   10.5580   16.6300 C.3       1 ASP         0.1057
     39 C          15.5980   10.5480   17.8720 C.2       1 ASP         0.0618
     40 O          15.4870    9.4870   18.5080 O.co2     1 ASP        -0.5665
     41 CB         15.6340   10.6840   15.3730 C.3       1 ASP         0.0351
     42 CG         16.4670   10.7630   14.1100 C.2       1 ASP         0.0387
     43 OD1        17.1010   11.8130   13.8980 O.co2     1 ASP        -0.5688
     44 OD2        16.5050    9.7720   13.3360 O.co2     1 ASP        -0.5688
     45 OXT        15.0060   11.6050   18.1750 O.co2     1 ASP        -0.5665
     46 H1         31.0698    7.3856   15.4379 H         1 ACE         0.0467
     47 H2         30.9663    7.8477   13.7052 H         1 ACE         0.0467
     48 H3         31.9126    6.4012   14.1941 H         1 ACE         0.0467
     49 H4         29.2866    6.5011   16.1685 H         1 MET         0.1882
     50 H5         28.0474    4.2301   14.8845 H         1 MET         0.0800
     51 H6         26.4409    4.3441   16.7410 H         1 MET         0.0320
     52 H7         27.0282    5.9858   17.1729 H         1 MET         0.0320
     53 H8         29.2434    4.9864   17.7187 H         1 MET         0.0378
     54 H9         28.5348    3.3623   17.4239 H         1 MET         0.0378
     55 H10        25.9674    2.9024   20.2482 H         1 MET         0.0340
     56 H11        27.0143    2.1164   19.0183 H         1 MET         0.0340
     57 H12        25.7335    3.2665   18.5049 H         1 MET         0.0340
     58 H13        25.8446    4.0456   14.2075 H         1 GLU         0.1883
     59 H14        24.8908    6.0414   12.4197 H         1 GLU         0.0801
     60 H15        22.6504    4.7937   12.7243 H         1 GLU         0.0330
     61 H16        23.5202    3.7339   13.8848 H         1 GLU         0.0330
     62 H17        23.4197    2.6479   11.7287 H         1 GLU         0.0433
     63 H18        25.1167    3.1293   12.0679 H         1 GLU         0.0433
     64 H19        23.2519    7.6330   12.7323 H         1 GLU         0.1883
     65 H20        23.1119    8.6902   15.4657 H         1 GLU         0.0801
     66 H21        21.7870   10.5444   14.2976 H         1 GLU         0.0330
     67 H22        22.1094    9.6784   12.7573 H         1 GLU         0.0330
     68 H23        24.5600    9.9107   13.2239 H         1 GLU         0.0433
     69 H24        24.1398   10.9334   14.6396 H         1 GLU         0.0433
     70 H25        21.3765    8.6646   16.8288 H         1 VAL         0.1883
     71 H26        18.8623    7.4952   15.7106 H         1 VAL         0.0802
     72 H27        18.1753    7.1931   18.1435 H         1 VAL         0.0343
     73 H28        19.5337    5.1294   18.4221 H         1 VAL         0.0234
     74 H29        20.6600    5.7075   17.1478 H         1 VAL         0.0234
     75 H30        18.9536    5.3286   16.7338 H         1 VAL         0.0234
     76 H31        19.7685    8.7948   19.1286 H         1 VAL         0.0234
     77 H32        21.1336    7.7379   18.6326 H         1 VAL         0.0234
     78 H33        19.9397    7.1550   19.8417 H         1 VAL         0.0234
     79 H34        16.8787    8.5029   16.2462 H         1 ASP         0.1876
     80 H35        17.1617   11.4304   16.6965 H         1 ASP         0.0745
     81 H36        15.0243   11.5961   15.4520 H         1 ASP         0.0471
     82 H37        14.9741    9.8064   15.3070 H         1 ASP         0.0471
@<TRIPOS>BOND
     1    1    2 2  
     2    1    3 1  
     3    5    4 1  
     4    5    8 1  
     5    6    5 1  
     6    6    7 2  
     7    8    9 1  
     8    9   10 1  
     9   10   11 1  
    10    4    1 am 
    11   13   12 1  
    12   13   16 1  
    13   14   13 1  
    14   14   15 2  
    15   16   17 1  
    16   17   18 1  
    17   18   20 ar 
    18   18   19 ar 
    19   12    6 am 
    20   22   21 1  
    21   22   25 1  
    22   23   22 1  
    23   23   24 2  
    24   25   26 1  
    25   26   27 1  
    26   27   29 ar 
    27   27   28 ar 
    28   21   14 am 
    29   31   30 1  
    30   31   34 1  
    31   32   31 1  
    32   32   33 2  
    33   34   36 1  
    34   34   35 1  
    35   30   23 am 
    36   37   38 1  
    37   38   41 1  
    38   38   39 1  
    39   39   40 ar 
    40   39   45 ar 
    41   41   42 1  
    42   42   43 ar 
    43   42   44 ar 
    44   32   37 am 
    45    3   46 1  
    46    3   47 1  
    47    3   48 1  
    48    4   49 1  
    49    5   50 1  
    50    8   51 1  
    51    8   52 1  
    52    9   53 1  
    53    9   54 1  
    54   11   55 1  
    55   11   56 1  
    56   11   57 1  
    57   12   58 1  
    58   13   59 1  
    59   16   60 1  
    60   16   61 1  
    61   17   62 1  
    62   17   63 1  
    63   21   64 1  
    64   22   65 1  
    65   25   66 1  
    66   25   67 1  
    67   26   68 1  
    68   26   69 1  
    69   30   70 1  
    70   31   71 1  
    71   34   72 1  
    72   35   73 1  
    73   35   74 1  
    74   35   75 1  
    75   36   76 1  
    76   36   77 1  
    77   36   78 1  
    78   37   79 1  
    79   38   80 1  
    80   41   81 1  
    81   41   82 1  
@<TRIPOS>SUBSTRUCTURE
     1 ACE         1

