### 
### Created by X-TOOL on Mon Sep 10 21:12:48 2018
### 

@<TRIPOS>MOLECULE
1em6_ligand
   58    61     1     0     0
SMALL
GAST_HUCK


@<TRIPOS>ATOM
      1 C0         -6.1280   35.0740   73.0490 C.ar      1 CP4        -0.0169
      2 C1         -4.8670   34.6920   73.5100 C.ar      1 CP4         0.0680
      3 C2         -5.8140   35.7050   71.7150 C.2       1 CP4        -0.0391
      4 C3         -7.3100   34.8440   73.7970 C.ar      1 CP4        -0.0571
      5 N4         -3.9470   35.0350   72.5920 N.pl3     1 CP4        -0.2669
      6 C5         -4.7000   34.0420   74.7690 C.ar      1 CP4        -0.0398
      7 C6         -4.4840   35.6220   71.5460 C.2       1 CP4         0.1322
      8 C7         -7.1730   34.1980   75.0640 C.ar      1 CP4         0.0253
      9 C8         -5.8840   33.8020   75.5470 C.ar      1 CP4        -0.0600
     10 C9         -3.6730   36.1100   70.3930 C.2       1 CP4         0.2269
     11 CL10       -8.5880   33.8840   76.0230 Cl        1 CP4        -0.0811
     12 N11        -4.2650   36.7460   69.3280 N.am      1 CP4        -0.2827
     13 O12        -2.4520   35.9340   70.4660 O.2       1 CP4        -0.3841
     14 C13        -3.4750   37.3030   68.2180 C.3       1 CP4         0.0536
     15 C14        -3.6630   36.5930   66.8670 C.3       1 CP4         0.0678
     16 O15        -3.0110   35.3100   67.0030 O.3       1 CP4        -0.3755
     17 C16        -1.6740   35.2240   66.4440 C.3       1 CP4         0.0711
     18 C17        -1.4970   33.7590   65.9740 C.3       1 CP4         0.0711
     19 O18        -2.4980   33.4600   64.9830 O.3       1 CP4        -0.3755
     20 C19        -2.9110   32.0760   64.9520 C.3       1 CP4         0.0678
     21 C20        -2.2180   31.3660   63.7530 C.3       1 CP4         0.0536
     22 N21        -2.7510   31.7670   62.4360 N.am      1 CP4        -0.2827
     23 C22        -2.0580   32.5990   61.6040 C.2       1 CP4         0.2269
     24 C23        -2.5830   32.9810   60.2520 C.2       1 CP4         0.1322
     25 O24        -0.9590   33.0560   61.9080 O.2       1 CP4        -0.3841
     26 N25        -1.8460   33.6570   59.3900 N.pl3     1 CP4        -0.2669
     27 C26        -3.7930   32.7110   59.7020 C.2       1 CP4        -0.0391
     28 C27        -2.5020   33.8780   58.2300 C.ar      1 CP4         0.0680
     29 C28        -3.7850   33.3100   58.3180 C.ar      1 CP4        -0.0169
     30 C29        -2.0660   34.5620   57.0560 C.ar      1 CP4        -0.0398
     31 C30        -4.7110   33.3750   57.2460 C.ar      1 CP4        -0.0571
     32 C31        -2.9880   34.6370   55.9630 C.ar      1 CP4        -0.0600
     33 C32        -4.2950   34.0490   56.0560 C.ar      1 CP4         0.0253
     34 CL33       -5.3900   34.1520   54.7060 Cl        1 CP4        -0.0811
     35 H1         -6.5294   36.1441   71.0212 H         1 CP4         0.0400
     36 H2         -8.2810   35.1468   73.4220 H         1 CP4         0.0564
     37 H3         -2.9377   34.8582   72.6963 H         1 CP4         0.2262
     38 H4         -3.7207   33.7417   75.1239 H         1 CP4         0.0550
     39 H5         -5.8006   33.3150   76.5118 H         1 CP4         0.0556
     40 H6         -5.2610   36.8328   69.3067 H         1 CP4         0.1842
     41 H7         -2.4113   37.2408   68.4912 H         1 CP4         0.0542
     42 H8         -3.7601   38.3579   68.0918 H         1 CP4         0.0542
     43 H9         -3.1964   37.1762   66.0594 H         1 CP4         0.0580
     44 H10        -4.7330   36.4580   66.6507 H         1 CP4         0.0580
     45 H11        -0.9238   35.4724   67.2092 H         1 CP4         0.0583
     46 H12        -1.5714   35.9128   65.5926 H         1 CP4         0.0583
     47 H13        -1.6129   33.0800   66.8316 H         1 CP4         0.0583
     48 H14        -0.4957   33.6303   65.5371 H         1 CP4         0.0583
     49 H15        -4.0030   32.0198   64.8325 H         1 CP4         0.0580
     50 H16        -2.6190   31.5831   65.8910 H         1 CP4         0.0580
     51 H17        -2.3542   30.2804   63.8666 H         1 CP4         0.0542
     52 H18        -1.1448   31.6058   63.7807 H         1 CP4         0.0542
     53 H19        -3.6429   31.4203   62.1456 H         1 CP4         0.1842
     54 H20        -0.8856   33.9775   59.5794 H         1 CP4         0.2262
     55 H21        -4.6122   32.1667   60.1695 H         1 CP4         0.0400
     56 H22        -1.0790   35.0059   56.9942 H         1 CP4         0.0550
     57 H23        -5.6965   32.9306   57.3259 H         1 CP4         0.0564
     58 H24        -2.6950   35.1453   55.0515 H         1 CP4         0.0556
@<TRIPOS>BOND
     1    1    2 ar 
     2    1    3 1  
     3    1    4 ar 
     4    2    5 1  
     5    2    6 ar 
     6    3    7 2  
     7    4    8 ar 
     8    5    7 1  
     9    6    9 ar 
    10    7   10 1  
    11    8    9 ar 
    12    8   11 1  
    13   10   12 am 
    14   10   13 2  
    15   12   14 1  
    16   14   15 1  
    17   15   16 1  
    18   16   17 1  
    19   17   18 1  
    20   18   19 1  
    21   19   20 1  
    22   20   21 1  
    23   21   22 1  
    24   22   23 am 
    25   23   24 1  
    26   23   25 2  
    27   24   26 1  
    28   24   27 2  
    29   26   28 1  
    30   27   29 1  
    31   28   29 ar 
    32   28   30 ar 
    33   29   31 ar 
    34   30   32 ar 
    35   31   33 ar 
    36   32   33 ar 
    37   33   34 1  
    38    3   35 1  
    39    4   36 1  
    40    5   37 1  
    41    6   38 1  
    42    9   39 1  
    43   12   40 1  
    44   14   41 1  
    45   14   42 1  
    46   15   43 1  
    47   15   44 1  
    48   17   45 1  
    49   17   46 1  
    50   18   47 1  
    51   18   48 1  
    52   20   49 1  
    53   20   50 1  
    54   21   51 1  
    55   21   52 1  
    56   22   53 1  
    57   26   54 1  
    58   27   55 1  
    59   30   56 1  
    60   31   57 1  
    61   32   58 1  
@<TRIPOS>SUBSTRUCTURE
     1 CP4         1

