### 
### Created by X-TOOL on Mon Sep 10 21:12:47 2018
### 

@<TRIPOS>MOLECULE
1enu_ligand
   20    21     1     0     0
SMALL
GAST_HUCK


@<TRIPOS>ATOM
      1 N10        15.8570   17.0170   23.9000 N.am      1 APZ        -0.1835
      2 C5         15.4180   16.8080   22.6540 C.2       1 APZ         0.2200
      3 O11        14.2550   16.4500   22.4630 O.2       1 APZ        -0.3870
      4 C2         16.3270   16.9930   21.5170 C.ar      1 APZ         0.0572
      5 C6         15.9130   16.7940   20.1850 C.ar      1 APZ        -0.0482
      6 C12        16.8180   16.9950   19.1330 C.ar      1 APZ        -0.0343
      7 C9         18.1390   17.4020   19.4080 C.ar      1 APZ         0.0461
      8 C4         18.5520   17.6070   20.7330 C.ar      1 APZ        -0.0189
      9 C1         17.6490   17.4110   21.7900 C.ar      1 APZ         0.0597
     10 C3         18.0560   17.6170   23.1860 C.2       1 APZ         0.2268
     11 O8         19.2020   17.9730   23.4500 O.2       1 APZ        -0.3808
     12 N7         17.1670   17.4200   24.1640 N.am      1 APZ        -0.1819
     13 N13        19.0140   17.5980   18.3900 N.pl3     1 APZ        -0.3333
     14 H1         15.2279   16.8805   24.6653 H         1 APZ         0.2155
     15 H2         14.8955   16.4857   19.9736 H         1 APZ         0.0648
     16 H3         16.5016   16.8374   18.1082 H         1 APZ         0.0563
     17 H4         19.5697   17.9171   20.9409 H         1 APZ         0.0581
     18 H5         17.4484   17.5655   25.1125 H         1 APZ         0.2159
     19 H6         18.7132   17.4482   17.4163 H         1 APZ         0.1737
     20 H7         19.9791   17.8966   18.5907 H         1 APZ         0.1737
@<TRIPOS>BOND
     1    1    2 am 
     2    1   12 1  
     3    2    3 2  
     4    2    4 1  
     5    4    5 ar 
     6    4    9 ar 
     7    5    6 ar 
     8    6    7 ar 
     9    7    8 ar 
    10    7   13 1  
    11    8    9 ar 
    12    9   10 1  
    13   10   11 2  
    14   10   12 am 
    15    1   14 1  
    16    5   15 1  
    17    6   16 1  
    18    8   17 1  
    19   12   18 1  
    20   13   19 1  
    21   13   20 1  
@<TRIPOS>SUBSTRUCTURE
     1 APZ         1

