### 
### Created by X-TOOL on Mon Sep 10 21:12:47 2018
### 

@<TRIPOS>MOLECULE
1eoc_ligand
   16    16     1     0     0
SMALL
GAST_HUCK


@<TRIPOS>ATOM
      1 C1          9.9140  -13.0470   41.2840 C.ar      1 4NC         0.3714
      2 C2          9.6060  -14.1390   40.5030 C.ar      1 4NC         0.3742
      3 C3         10.5980  -14.9680   40.0260 C.ar      1 4NC         0.1651
      4 C4         11.9150  -14.6950   40.3430 C.ar      1 4NC         0.2114
      5 C5         12.2350  -13.6020   41.1310 C.ar      1 4NC         0.0958
      6 C6         11.2300  -12.7810   41.5960 C.ar      1 4NC         0.1385
      7 O7          8.8990  -12.2270   41.7550 O.3       1 4NC        -0.1808
      8 O8          8.2720  -14.3830   40.2150 O.3       1 4NC        -0.1831
      9 N9         12.9680  -15.5560   39.8370 N.2       1 4NC        -0.1414
     10 O10        12.7050  -16.5400   39.1140 O.2       1 4NC        -0.4541
     11 O11        14.1730  -15.3430   40.0940 O.2       1 4NC        -0.4541
     12 H1         10.3483  -15.8240   39.4095 H         1 4NC         0.1053
     13 H2         13.2691  -13.3934   41.3805 H         1 4NC         0.1507
     14 H3         11.4758  -11.9221   42.2100 H         1 4NC         0.0996
     15 H4          8.0615  -12.5532   41.4475 H         1 4NC         0.3517
     16 H5          7.7938  -14.5173   41.0248 H         1 4NC         0.3499
@<TRIPOS>BOND
     1    1    7 1  
     2    1    6 ar 
     3    1    2 ar 
     4    2    8 1  
     5    2    3 ar 
     6    3    4 ar 
     7    4    9 1  
     8    4    5 ar 
     9    5    6 ar 
    10    9   11 2  
    11    9   10 2  
    12    3   12 1  
    13    5   13 1  
    14    6   14 1  
    15    7   15 1  
    16    8   16 1  
@<TRIPOS>SUBSTRUCTURE
     1 4NC         1

