### 
### Created by X-TOOL on Mon Sep 10 21:12:49 2018
### 

@<TRIPOS>MOLECULE
1eou_ligand
   37    39     1     0     0
SMALL
GAST_HUCK


@<TRIPOS>ATOM
      1 S2         -5.7490    1.3350   16.8390 S.o2      1 SMS         0.1598
      2 N1         -5.3260   -0.1620   16.6210 N.am      1 SMS        -0.2415
      3 O10        -7.1400    1.4650   16.9140 O.2       1 SMS        -0.1270
      4 O9         -5.0090    1.7710   17.9370 O.2       1 SMS        -0.1270
      5 O8         -5.2570    1.9910   15.4980 O.3       1 SMS        -0.2173
      6 C1         -5.5000    3.4020   15.2600 C.3       1 SMS         0.1347
      7 C2         -4.9520    3.6840   13.8510 C.3       1 SMS         0.2280
      8 C3         -3.4460    3.3820   13.5500 C.3       1 SMS         0.1489
      9 C4         -2.6050    4.6660   13.4420 C.3       1 SMS         0.1514
     10 C5         -3.2590    5.8030   12.5610 C.3       1 SMS         0.1440
     11 C6         -4.7560    5.6560   12.4450 C.3       1 SMS         0.0823
     12 O3         -5.2940    5.0590   13.6650 O.3       1 SMS        -0.3417
     13 O5         -3.0060    7.0210   13.2680 O.3       1 SMS        -0.2072
     14 S1         -2.3690    6.8260   14.6350 S.o2      1 SMS         0.2108
     15 O7         -1.0630    7.2750   14.5700 O.2       1 SMS        -0.1179
     16 O6         -3.1790    7.4270   15.6280 O.2       1 SMS        -0.1179
     17 O4         -2.4520    5.2600   14.7260 O.3       1 SMS        -0.2068
     18 O2         -3.4600    2.8030   12.2580 O.3       1 SMS        -0.3377
     19 C7         -4.6780    2.0790   12.1180 C.3       1 SMS         0.1686
     20 C9         -4.5610    0.6390   12.6070 C.3       1 SMS        -0.0107
     21 C8         -5.0850    2.1360   10.6670 C.3       1 SMS        -0.0107
     22 O1         -5.6190    2.8570   12.9280 O.3       1 SMS        -0.3130
     23 H1         -5.5141   -0.8429   17.3288 H         1 SMS         0.1654
     24 H2         -4.8686   -0.4341   15.7744 H         1 SMS         0.1654
     25 H3         -4.9726    4.0138   16.0066 H         1 SMS         0.0639
     26 H4         -6.5775    3.6188   15.3034 H         1 SMS         0.0639
     27 H5         -3.0212    2.7042   14.3050 H         1 SMS         0.0680
     28 H6         -1.6223    4.4007   13.0250 H         1 SMS         0.0677
     29 H7         -2.8050    5.8185   11.5592 H         1 SMS         0.0672
     30 H8         -4.9935    5.0094   11.5874 H         1 SMS         0.0588
     31 H9         -5.2090    6.6469   12.2937 H         1 SMS         0.0588
     32 H10        -3.8469    0.0933   11.9727 H         1 SMS         0.0281
     33 H11        -5.5459    0.1522   12.5528 H         1 SMS         0.0281
     34 H12        -4.2057    0.6330   13.6480 H         1 SMS         0.0281
     35 H13        -4.3754    1.5505   10.0639 H         1 SMS         0.0281
     36 H14        -5.0806    3.1817   10.3257 H         1 SMS         0.0281
     37 H15        -6.0958    1.7173   10.5529 H         1 SMS         0.0281
@<TRIPOS>BOND
     1    1    5 1  
     2    1    4 2  
     3    1    3 2  
     4    1    2 am 
     5    5    6 1  
     6    6    7 1  
     7    7   22 1  
     8    7   12 1  
     9    7    8 1  
    10    8   18 1  
    11    8    9 1  
    12    9   17 1  
    13    9   10 1  
    14   10   13 1  
    15   10   11 1  
    16   11   12 1  
    17   13   14 1  
    18   14   17 1  
    19   14   16 2  
    20   14   15 2  
    21   18   19 1  
    22   19   22 1  
    23   19   21 1  
    24   19   20 1  
    25    2   23 1  
    26    2   24 1  
    27    6   25 1  
    28    6   26 1  
    29    8   27 1  
    30    9   28 1  
    31   10   29 1  
    32   11   30 1  
    33   11   31 1  
    34   20   32 1  
    35   20   33 1  
    36   20   34 1  
    37   21   35 1  
    38   21   36 1  
    39   21   37 1  
@<TRIPOS>SUBSTRUCTURE
     1 SMS         1

