### 
### Created by X-TOOL on Mon Sep 10 21:12:45 2018
### 

@<TRIPOS>MOLECULE
1epo_ligand
   95    97     1     0     0
SMALL
GAST_HUCK


@<TRIPOS>ATOM
      1 O1         30.9720   -7.3220   -7.5670 O.3       1 2Z3        -0.3758
      2 C2         30.7770   -6.5530   -6.3560 C.3       1 2Z3         0.0678
      3 C3         32.0090   -6.3100   -5.7150 C.3       1 2Z3         0.0577
      4 N4         32.8370   -7.4660   -5.6290 N.am      1 2Z3        -0.2550
      5 C5         32.8620   -8.4650   -6.6830 C.3       1 2Z3         0.0577
      6 C6         31.4860   -8.6410   -7.1880 C.3       1 2Z3         0.0678
      7 C          33.6370   -7.6200   -4.5270 C.2       1 2Z3         0.2624
      8 O          34.3590   -8.5990   -4.4530 O.2       1 2Z3        -0.4005
      9 N          33.6170   -6.7070   -3.5780 N.am      1 2Z3        -0.2499
     10 CA         34.4320   -6.8050   -2.3250 C.3       1 2Z3         0.1408
     11 C          33.8580   -7.8980   -1.3780 C.2       1 2Z3         0.2057
     12 O          32.7320   -8.1850   -1.2680 O.2       1 2Z3        -0.3942
     13 CB         34.2260   -5.4560   -1.5280 C.3       1 2Z3         0.0212
     14 CG         35.0450   -4.3950   -2.2620 C.ar      1 2Z3        -0.0386
     15 CD1        36.3830   -4.5380   -2.4410 C.ar      1 2Z3        -0.0601
     16 CD2        34.3630   -3.2670   -2.8110 C.ar      1 2Z3        -0.0601
     17 CE1        37.1650   -3.6050   -3.1060 C.ar      1 2Z3        -0.0686
     18 CE2        35.1440   -2.3490   -3.4730 C.ar      1 2Z3        -0.0686
     19 CZ         36.4990   -2.4730   -3.6380 C.ar      1 2Z3        -0.0687
     20 N          34.8240   -8.5260   -0.6400 N.am      1 2Z3        -0.2636
     21 CA         34.4240   -9.6120    0.2950 C.3       1 2Z3         0.1308
     22 C          35.5270   -9.6380    1.4140 C.2       1 2Z3         0.2020
     23 O          36.5960  -10.1450    1.1750 O.2       1 2Z3        -0.3945
     24 CB         34.5110  -10.9620   -0.4720 C.3       1 2Z3        -0.0124
     25 CG         34.2020  -12.1490    0.4110 C.3       1 2Z3        -0.0491
     26 CD         33.4710  -13.3180   -0.1940 C.3       1 2Z3        -0.0557
     27 CE         34.0330  -13.8210   -1.4670 C.3       1 2Z3        -0.0653
     28 N          35.1960   -9.0450    2.5090 N.am      1 2Z3        -0.2768
     29 CA         36.2070   -8.7560    3.5860 C.3       1 2Z3         0.1008
     30 CB         36.6660   -7.3540    3.6360 C.3       1 2Z3        -0.0220
     31 CG         36.9750   -6.6040    2.3700 C.3       1 2Z3        -0.0388
     32 CD1        38.2070   -7.0160    1.6900 C.3       1 2Z3        -0.0501
     33 CD2        36.8100   -5.1140    2.4840 C.3       1 2Z3        -0.0501
     34 CE1        38.6760   -6.2700    0.4530 C.3       1 2Z3        -0.0528
     35 CE2        37.3100   -4.3430    1.2730 C.3       1 2Z3        -0.0528
     36 CZ         38.6020   -4.7580    0.7240 C.3       1 2Z3        -0.0530
     37 CH         35.6750   -9.3170    4.9050 C.3       1 2Z3         0.2610
     38 OH1        34.3640   -8.7570    5.2470 O.3       1 2Z3        -0.3594
     39 OH2        36.5070   -8.9240    5.9360 O.3       1 2Z3        -0.3594
     40 CM         35.5910  -10.8480    4.9370 C.3       1 2Z3         0.3772
     41 F1         35.1040  -11.2960    3.8410 F         1 2Z3        -0.1946
     42 F2         34.7100  -11.2810    5.8530 F         1 2Z3        -0.1946
     43 C          36.9100  -11.4650    5.2600 C.2       1 2Z3         0.2705
     44 O          37.7810  -11.8210    4.4160 O.2       1 2Z3        -0.3382
     45 N          37.1720  -11.7830    6.5550 N.am      1 2Z3        -0.2842
     46 CH3        38.5090  -12.4190    6.8120 C.3       1 2Z3         0.0198
     47 H1         30.1200   -7.1133   -5.6745 H         1 2Z3         0.0580
     48 H2         30.3070   -5.5917   -6.6107 H         1 2Z3         0.0580
     49 H3         31.8071   -5.9486   -4.6959 H         1 2Z3         0.0542
     50 H4         32.5490   -5.5350   -6.2786 H         1 2Z3         0.0542
     51 H5         33.2360   -9.4188   -6.2826 H         1 2Z3         0.0542
     52 H6         33.5175   -8.1279   -7.4995 H         1 2Z3         0.0542
     53 H7         31.4920   -9.3056   -8.0645 H         1 2Z3         0.0580
     54 H8         30.8524   -9.0770   -6.4016 H         1 2Z3         0.0580
     55 H9         33.0281   -5.9081   -3.7001 H         1 2Z3         0.1879
     56 H10        35.4903   -6.9916   -2.5597 H         1 2Z3         0.0820
     57 H11        34.5846   -5.5659   -0.4939 H         1 2Z3         0.0473
     58 H12        33.1619   -5.1773   -1.5195 H         1 2Z3         0.0473
     59 H13        36.8640   -5.4249   -2.0448 H         1 2Z3         0.0557
     60 H14        33.2909   -3.1415   -2.7116 H         1 2Z3         0.0557
     61 H15        38.2357   -3.7358   -3.2137 H         1 2Z3         0.0599
     62 H16        34.6585   -1.4740   -3.8897 H         1 2Z3         0.0599
     63 H17        37.0566   -1.7114   -4.1711 H         1 2Z3         0.0559
     64 H18        35.7838   -8.2592   -0.7277 H         1 2Z3         0.1883
     65 H19        33.4188   -9.4466    0.7100 H         1 2Z3         0.0800
     66 H20        35.5292  -11.0755   -0.8724 H         1 2Z3         0.0312
     67 H21        33.7903  -10.9431   -1.3028 H         1 2Z3         0.0312
     68 H22        33.5913  -11.7814    1.2488 H         1 2Z3         0.0267
     69 H23        35.1608  -12.5278    0.7946 H         1 2Z3         0.0267
     70 H24        32.4311  -13.0106   -0.3789 H         1 2Z3         0.0263
     71 H25        33.4858  -14.1425    0.5340 H         1 2Z3         0.0263
     72 H26        33.4309  -14.6697   -1.8237 H         1 2Z3         0.0230
     73 H27        35.0702  -14.1496   -1.3055 H         1 2Z3         0.0230
     74 H28        34.0156  -13.0177   -2.2183 H         1 2Z3         0.0230
     75 H29        34.2444   -8.7701    2.6466 H         1 2Z3         0.1856
     76 H30        37.1036   -9.3433    3.3388 H         1 2Z3         0.0610
     77 H31        37.5858   -7.3454    4.2392 H         1 2Z3         0.0292
     78 H32        35.8814   -6.7844    4.1555 H         1 2Z3         0.0292
     79 H33        36.1758   -6.9105    1.6791 H         1 2Z3         0.0302
     80 H34        38.0709   -8.0669    1.3948 H         1 2Z3         0.0268
     81 H35        39.0176   -6.9451    2.4302 H         1 2Z3         0.0268
     82 H36        37.3682   -4.7706    3.3675 H         1 2Z3         0.0268
     83 H37        35.7406   -4.8934    2.6173 H         1 2Z3         0.0268
     84 H38        38.0285   -6.5243   -0.3991 H         1 2Z3         0.0265
     85 H39        39.7136   -6.5532    0.2224 H         1 2Z3         0.0265
     86 H40        37.3935   -3.2848    1.5613 H         1 2Z3         0.0265
     87 H41        36.5589   -4.4478    0.4763 H         1 2Z3         0.0265
     88 H42        38.7702   -4.2226   -0.2221 H         1 2Z3         0.0265
     89 H43        39.3912   -4.4905    1.4420 H         1 2Z3         0.0265
     90 H44        34.4304   -7.8111    5.3053 H         1 2Z3         0.2128
     91 H45        36.5294   -7.9753    5.9792 H         1 2Z3         0.2128
     92 H46        36.5172  -11.6052    7.2896 H         1 2Z3         0.1855
     93 H47        38.6131  -12.6323    7.8861 H         1 2Z3         0.0485
     94 H48        39.3084  -11.7330    6.4953 H         1 2Z3         0.0485
     95 H49        38.5842  -13.3573    6.2429 H         1 2Z3         0.0485
@<TRIPOS>BOND
     1   10    9 1  
     2   10   13 1  
     3   11   10 1  
     4   11   12 2  
     5   13   14 1  
     6   14   15 ar 
     7   14   16 ar 
     8   16   18 ar 
     9   18   19 ar 
    10   17   19 ar 
    11   15   17 ar 
    12   45   46 1  
    13    2    1 1  
    14    6    1 1  
    15    3    2 1  
    16    4    3 1  
    17    4    5 1  
    18    7    4 am 
    19    5    6 1  
    20    7    8 2  
    21    9    7 am 
    22   20   11 am 
    23   21   20 1  
    24   22   21 1  
    25   21   24 1  
    26   22   23 2  
    27   28   22 am 
    28   24   25 1  
    29   25   26 1  
    30   26   27 1  
    31   29   28 1  
    32   29   30 1  
    33   37   29 1  
    34   30   31 1  
    35   31   32 1  
    36   31   33 1  
    37   32   34 1  
    38   33   35 1  
    39   34   36 1  
    40   35   36 1  
    41   37   38 1  
    42   37   39 1  
    43   40   37 1  
    44   40   41 1  
    45   40   42 1  
    46   43   40 1  
    47   43   44 2  
    48   43   45 am 
    49    2   47 1  
    50    2   48 1  
    51    3   49 1  
    52    3   50 1  
    53    5   51 1  
    54    5   52 1  
    55    6   53 1  
    56    6   54 1  
    57    9   55 1  
    58   10   56 1  
    59   13   57 1  
    60   13   58 1  
    61   15   59 1  
    62   16   60 1  
    63   17   61 1  
    64   18   62 1  
    65   19   63 1  
    66   20   64 1  
    67   21   65 1  
    68   24   66 1  
    69   24   67 1  
    70   25   68 1  
    71   25   69 1  
    72   26   70 1  
    73   26   71 1  
    74   27   72 1  
    75   27   73 1  
    76   27   74 1  
    77   28   75 1  
    78   29   76 1  
    79   30   77 1  
    80   30   78 1  
    81   31   79 1  
    82   32   80 1  
    83   32   81 1  
    84   33   82 1  
    85   33   83 1  
    86   34   84 1  
    87   34   85 1  
    88   35   86 1  
    89   35   87 1  
    90   36   88 1  
    91   36   89 1  
    92   38   90 1  
    93   39   91 1  
    94   45   92 1  
    95   46   93 1  
    96   46   94 1  
    97   46   95 1  
@<TRIPOS>SUBSTRUCTURE
     1 2Z3         1

