### 
### Created by X-TOOL on Mon Sep 10 21:12:45 2018
### 

@<TRIPOS>MOLECULE
1erb_ligand
   57    57     1     0     0
SMALL
GAST_HUCK


@<TRIPOS>ATOM
      1 C1         30.0350   21.4960   45.3510 C.3       1 ETR        -0.0842
      2 C2         29.5360   21.5490   43.9000 C.3       1 ETR        -0.0971
      3 C3         30.0000   20.3840   43.0340 C.3       1 ETR        -0.0375
      4 C4         31.2680   19.7840   43.6060 C.3       1 ETR         0.0375
      5 C5         30.9700   19.3160   45.0280 C.2       1 ETR         0.0261
      6 C6         30.2620   20.0880   45.9100 C.2       1 ETR        -0.0416
      7 C7         30.3430   19.5080   47.2550 C.2       1 ETR        -0.0568
      8 C8         31.6130   19.5150   47.7410 C.2       1 ETR        -0.0480
      9 C9         31.6720   19.1860   49.1630 C.2       1 ETR        -0.0383
     10 C10        32.9770   19.1300   49.5110 C.2       1 ETR        -0.0574
     11 C11        33.0790   18.9470   50.9230 C.2       1 ETR        -0.0684
     12 C12        34.4980   18.8310   51.1830 C.2       1 ETR        -0.0613
     13 C13        35.0440   18.6470   52.4650 C.2       1 ETR        -0.0503
     14 C14        36.1710   18.4870   52.6170 C.2       1 ETR        -0.0145
     15 C15        36.5720   18.2850   53.9970 C.2       1 ETR         0.1647
     16 O          35.6070   18.3500   54.9850 O.2       1 ETR        -0.4092
     17 N          37.6270   17.9910   54.1300 N.am      1 ETR        -0.2947
     18 C16        28.5990   21.6060   45.8100 C.3       1 ETR        -0.1139
     19 C17        30.7830   22.7870   45.6750 C.3       1 ETR        -0.1139
     20 C18        31.5600   17.9330   45.2190 C.3       1 ETR         0.0278
     21 C19        30.3050   18.9370   49.7900 C.3       1 ETR        -0.0252
     22 C20        34.0830   18.7640   53.5240 C.3       1 ETR        -0.0294
     23 C21        37.9900   16.7390   55.0200 C.3       1 ETR         0.0261
     24 C22        38.3520   17.4810   56.2650 C.3       1 ETR        -0.0451
     25 H1         29.8988   22.4824   43.4448 H         1 ETR         0.0081
     26 H2         28.4361   21.5511   43.9138 H         1 ETR         0.0081
     27 H3         30.1962   20.7446   42.0135 H         1 ETR         0.0310
     28 H4         29.2138   19.6152   43.0065 H         1 ETR         0.0310
     29 H5         32.0651   20.5418   43.6220 H         1 ETR         0.0731
     30 H6         31.5868   18.9294   42.9911 H         1 ETR         0.0731
     31 H7         29.4856   19.1172   47.8009 H         1 ETR         0.0719
     32 H8         32.4900   19.7411   47.1363 H         1 ETR         0.0587
     33 H9         33.8173   19.2116   48.8232 H         1 ETR         0.0494
     34 H10        32.2664   18.9040   51.6467 H         1 ETR         0.0668
     35 H11        35.1815   18.8896   50.3373 H         1 ETR         0.0492
     36 H12        36.8817   18.4869   51.7919 H         1 ETR         0.0373
     37 H13        38.3528   18.5173   53.6870 H         1 ETR         0.1821
     38 H14        28.5639   21.5987   46.9094 H         1 ETR         0.0042
     39 H15        28.0228   20.7544   45.4191 H         1 ETR         0.0042
     40 H16        28.1652   22.5450   45.4356 H         1 ETR         0.0042
     41 H17        31.1418   22.7519   46.7142 H         1 ETR         0.0042
     42 H18        30.1056   23.6446   45.5498 H         1 ETR         0.0042
     43 H19        31.6405   22.8946   44.9945 H         1 ETR         0.0042
     44 H20        31.3520   17.5836   46.2411 H         1 ETR         0.0697
     45 H21        32.6476   17.9731   45.0595 H         1 ETR         0.0697
     46 H22        31.1085   17.2386   44.4952 H         1 ETR         0.0697
     47 H23        29.5189   19.1363   49.0468 H         1 ETR         0.0429
     48 H24        30.1706   19.6047   50.6538 H         1 ETR         0.0429
     49 H25        30.2389   17.8903   50.1218 H         1 ETR         0.0429
     50 H26        33.0808   18.9111   53.0951 H         1 ETR         0.0416
     51 H27        34.3400   19.6247   54.1589 H         1 ETR         0.0416
     52 H28        34.0914   17.8459   54.1298 H         1 ETR         0.0416
     53 H29        38.8368   16.1672   54.6125 H         1 ETR         0.0514
     54 H30        37.1314   16.0675   55.1678 H         1 ETR         0.0514
     55 H31        38.6481   16.7648   57.0457 H         1 ETR         0.0249
     56 H32        37.4846   18.0624   56.6107 H         1 ETR         0.0249
     57 H33        39.1900   18.1621   56.0554 H         1 ETR         0.0249
@<TRIPOS>BOND
     1    1   19 1  
     2    1   18 1  
     3    1    6 1  
     4    1    2 1  
     5    2    3 1  
     6    3    4 1  
     7    4    5 1  
     8    5   20 1  
     9    5    6 2  
    10    6    7 1  
    11    7    8 2  
    12    8    9 1  
    13    9   21 1  
    14    9   10 2  
    15   10   11 1  
    16   11   12 2  
    17   12   13 1  
    18   13   22 1  
    19   13   14 2  
    20   14   15 1  
    21   15   17 am 
    22   15   16 2  
    23   17   23 1  
    24   23   24 1  
    25    2   25 1  
    26    2   26 1  
    27    3   27 1  
    28    3   28 1  
    29    4   29 1  
    30    4   30 1  
    31    7   31 1  
    32    8   32 1  
    33   10   33 1  
    34   11   34 1  
    35   12   35 1  
    36   14   36 1  
    37   17   37 1  
    38   18   38 1  
    39   18   39 1  
    40   18   40 1  
    41   19   41 1  
    42   19   42 1  
    43   19   43 1  
    44   20   44 1  
    45   20   45 1  
    46   20   46 1  
    47   21   47 1  
    48   21   48 1  
    49   21   49 1  
    50   22   50 1  
    51   22   51 1  
    52   22   52 1  
    53   23   53 1  
    54   23   54 1  
    55   24   55 1  
    56   24   56 1  
    57   24   57 1  
@<TRIPOS>SUBSTRUCTURE
     1 ETR         1

