### 
### Created by X-TOOL on Mon Sep 10 21:12:46 2018
### 

@<TRIPOS>MOLECULE
1err_ligand
   62    66     1     0     0
SMALL
GAST_HUCK


@<TRIPOS>ATOM
      1 C1         69.5710   36.2230   71.9170 C.ar      1 RAL        -0.0711
      2 C2         69.8160   37.4480   71.3520 C.ar      1 RAL        -0.0408
      3 C3         69.0830   37.9330   70.3050 C.ar      1 RAL         0.0805
      4 O3         69.4100   39.1860   69.8500 O.3       1 RAL        -0.3362
      5 C4         68.0290   37.1670   69.7940 C.ar      1 RAL        -0.0212
      6 C5         67.7650   35.9560   70.3850 C.ar      1 RAL         0.0320
      7 S6         66.6380   34.8150   69.9860 S.3       1 RAL        -0.0307
      8 C7         67.0010   33.6910   71.1920 C.2       1 RAL         0.0508
      9 C8         66.3470   32.3560   71.3010 C.ar      1 RAL        -0.0085
     10 C9         66.0870   31.7270   70.0990 C.ar      1 RAL        -0.0573
     11 C10        65.5600   30.4460   70.1280 C.ar      1 RAL        -0.0288
     12 C11        65.2590   29.8170   71.3200 C.ar      1 RAL         0.0923
     13 O11        64.7350   28.5250   71.2490 O.3       1 RAL        -0.3300
     14 C12        65.5620   30.4280   72.5190 C.ar      1 RAL        -0.0288
     15 C13        66.1060   31.7060   72.4800 C.ar      1 RAL        -0.0573
     16 C14        68.5560   35.4680   71.4640 C.ar      1 RAL        -0.0190
     17 C15        68.1280   34.1500   71.9060 C.2       1 RAL         0.0314
     18 C16        68.7710   33.4630   72.9180 C.2       1 RAL         0.1326
     19 O16        69.3680   32.4120   72.6530 O.2       1 RAL        -0.3880
     20 C17        68.7680   33.9170   74.3130 C.ar      1 RAL         0.0176
     21 C18        69.6210   33.3510   75.2390 C.ar      1 RAL        -0.0525
     22 C19        69.6330   33.7450   76.5630 C.ar      1 RAL        -0.0269
     23 C20        68.7330   34.7250   76.9780 C.ar      1 RAL         0.0970
     24 C21        67.8790   35.3050   76.0570 C.ar      1 RAL        -0.0269
     25 C22        67.9070   34.9100   74.7300 C.ar      1 RAL        -0.0525
     26 O23        68.5550   35.2590   78.2200 O.3       1 RAL        -0.3091
     27 C24        69.4610   34.8370   79.2280 C.3       1 RAL         0.1114
     28 C25        69.3110   35.6920   80.4580 C.3       1 RAL        -0.0032
     29 N26        69.0230   37.1100   80.5570 N.4       1 RAL         0.2372
     30 C27        68.7200   37.4370   81.9650 C.3       1 RAL        -0.0318
     31 C28        68.5440   38.9460   82.2290 C.3       1 RAL        -0.0123
     32 C29        67.3380   39.4040   81.3930 C.3       1 RAL        -0.0434
     33 C30        67.8040   39.1970   79.9190 C.3       1 RAL        -0.0123
     34 C31        67.9600   37.6810   79.7070 C.3       1 RAL        -0.0318
     35 H1         70.1949   35.8643   72.7276 H         1 RAL         0.0549
     36 H2         70.6211   38.0547   71.7505 H         1 RAL         0.0502
     37 H3         69.3026   39.8152   70.5536 H         1 RAL         0.2474
     38 H4         67.4383   37.5194   68.9562 H         1 RAL         0.0485
     39 H5         66.2902   32.2231   69.1568 H         1 RAL         0.0618
     40 H6         65.3799   29.9258   69.1942 H         1 RAL         0.0556
     41 H7         64.5706   28.2024   72.1273 H         1 RAL         0.2502
     42 H8         65.3812   29.9265   73.4628 H         1 RAL         0.0556
     43 H9         66.3468   32.2031   73.4127 H         1 RAL         0.0618
     44 H10        70.3032   32.5725   74.9170 H         1 RAL         0.0641
     45 H11        70.3288   33.3006   77.2655 H         1 RAL         0.0557
     46 H12        67.1838   36.0732   76.3760 H         1 RAL         0.0557
     47 H13        67.2468   35.3852   74.0135 H         1 RAL         0.0641
     48 H14        70.4903   34.9232   78.8497 H         1 RAL         0.0670
     49 H15        69.2523   33.7886   79.4875 H         1 RAL         0.0670
     50 H16        70.2639   35.5691   80.9936 H         1 RAL         0.0841
     51 H17        68.5044   35.2093   81.0292 H         1 RAL         0.0841
     52 H18        69.8735   37.5861   80.2999 H         1 RAL         0.2034
     53 H19        69.5456   37.0692   82.5920 H         1 RAL         0.0814
     54 H20        67.7886   36.9245   82.2475 H         1 RAL         0.0814
     55 H21        69.4477   39.4925   81.9214 H         1 RAL         0.0317
     56 H22        68.3538   39.1241   83.2977 H         1 RAL         0.0317
     57 H23        67.1073   40.4621   81.5857 H         1 RAL         0.0269
     58 H24        66.4527   38.7896   81.6136 H         1 RAL         0.0269
     59 H25        68.7663   39.7030   79.7521 H         1 RAL         0.0317
     60 H26        67.0523   39.6004   79.2246 H         1 RAL         0.0317
     61 H27        67.0072   37.1885   79.9511 H         1 RAL         0.0814
     62 H28        68.2099   37.4939   78.6522 H         1 RAL         0.0814
@<TRIPOS>BOND
     1    1    2 ar 
     2    1   16 ar 
     3    2    3 ar 
     4    3    4 1  
     5    3    5 ar 
     6    5    6 ar 
     7    6    7 1  
     8    6   16 ar 
     9    7    8 1  
    10    8    9 1  
    11    8   17 2  
    12    9   10 ar 
    13    9   15 ar 
    14   10   11 ar 
    15   11   12 ar 
    16   12   13 1  
    17   12   14 ar 
    18   14   15 ar 
    19   16   17 1  
    20   17   18 1  
    21   18   19 2  
    22   18   20 1  
    23   20   21 ar 
    24   20   25 ar 
    25   21   22 ar 
    26   22   23 ar 
    27   23   24 ar 
    28   23   26 1  
    29   24   25 ar 
    30   26   27 1  
    31   27   28 1  
    32   28   29 1  
    33   29   30 1  
    34   29   34 1  
    35   30   31 1  
    36   31   32 1  
    37   32   33 1  
    38   33   34 1  
    39    1   35 1  
    40    2   36 1  
    41    4   37 1  
    42    5   38 1  
    43   10   39 1  
    44   11   40 1  
    45   13   41 1  
    46   14   42 1  
    47   15   43 1  
    48   21   44 1  
    49   22   45 1  
    50   24   46 1  
    51   25   47 1  
    52   27   48 1  
    53   27   49 1  
    54   28   50 1  
    55   28   51 1  
    56   29   52 1  
    57   30   53 1  
    58   30   54 1  
    59   31   55 1  
    60   31   56 1  
    61   32   57 1  
    62   32   58 1  
    63   33   59 1  
    64   33   60 1  
    65   34   61 1  
    66   34   62 1  
@<TRIPOS>SUBSTRUCTURE
     1 RAL         1

