### 
### Created by X-TOOL on Mon Sep 10 21:12:45 2018
### 

@<TRIPOS>MOLECULE
1ets_ligand
   69    72     1     0     0
SMALL
GAST_HUCK


@<TRIPOS>ATOM
      1 S         -37.3520  -31.2710   47.2640 S.o2      1 MID         0.0702
      2 O1        -36.1430  -32.1060   47.6390 O.2       1 MID        -0.1502
      3 O2        -38.5750  -31.7440   48.0490 O.2       1 MID        -0.1502
      4 C1        -38.1890  -28.7440   48.0850 C.ar      1 MID        -0.0274
      5 C2        -37.1270  -29.5950   47.7860 C.ar      1 MID         0.1089
      6 C3        -35.8140  -29.1890   47.9700 C.ar      1 MID        -0.0345
      7 C4        -35.5410  -27.9820   48.5800 C.ar      1 MID        -0.0522
      8 C5        -36.2550  -25.9070   49.4020 C.ar      1 MID        -0.0540
      9 C6        -37.2690  -25.0020   49.5860 C.ar      1 MID        -0.0612
     10 C7        -38.5750  -25.3700   49.3230 C.ar      1 MID        -0.0612
     11 C8        -38.9180  -26.6390   48.9050 C.ar      1 MID        -0.0540
     12 C9        -37.9070  -27.4960   48.5970 C.ar      1 MID        -0.0160
     13 C10       -36.5890  -27.1350   48.8700 C.ar      1 MID        -0.0178
     14 N         -37.7430  -31.5420   45.7410 N.am      1 MID        -0.2285
     15 CA        -36.8040  -31.2460   44.7000 C.3       1 MID         0.1157
     16 C         -37.3310  -30.0430   43.9490 C.2       1 MID         0.1970
     17 O         -38.3210  -29.3770   44.2970 O.2       1 MID        -0.3951
     18 CA        -36.8080  -28.7550   41.9950 C.3       1 MID         0.1405
     19 C         -35.5080  -27.9520   41.9950 C.2       1 MID         0.2062
     20 O         -34.6750  -28.0830   41.1030 O.2       1 MID        -0.3941
     21 N         -36.5780  -29.8560   42.8920 N.am      1 MID        -0.2625
     22 CB        -37.1950  -29.2680   40.6250 C.3       1 MID         0.0214
     23 CG        -38.5810  -29.8840   40.6330 C.ar      1 MID        -0.0386
     24 CD1       -38.7510  -31.2500   40.7230 C.ar      1 MID        -0.0601
     25 CD2       -39.6770  -29.0660   40.5420 C.ar      1 MID        -0.0601
     26 CE1       -40.0100  -31.8040   40.7820 C.ar      1 MID        -0.0633
     27 CE2       -40.9350  -29.6180   40.6020 C.ar      1 MID        -0.0633
     28 CZ        -41.1240  -30.9810   40.7110 C.ar      1 MID         0.0188
     29 CF        -42.4130  -31.4950   40.7260 C.cat     1 MID         0.2318
     30 NG1       -42.6090  -32.7600   41.1140 N.pl3     1 MID        -0.2729
     31 NG2       -43.4470  -30.7100   40.4430 N.pl3     1 MID        -0.2729
     32 N1        -35.3110  -27.0940   42.9980 N.am      1 MID        -0.2712
     33 C2        -34.0690  -26.3880   43.2110 C.3       1 MID         0.0339
     34 C3        -33.6300  -26.7280   44.6420 C.3       1 MID        -0.0325
     35 C4        -34.5750  -26.2790   45.7310 C.3       1 MID        -0.0494
     36 C5        -35.8200  -27.0390   45.3910 C.3       1 MID        -0.0325
     37 C6        -36.3370  -26.7910   43.9920 C.3       1 MID         0.0339
     38 H1        -39.2136  -29.0565   47.9187 H         1 MID         0.0643
     39 H2        -35.0002  -29.8213   47.6338 H         1 MID         0.0637
     40 H3        -34.5223  -27.7052   48.8264 H         1 MID         0.0624
     41 H4        -35.2311  -25.6666   49.6644 H         1 MID         0.0624
     42 H5        -37.0467  -24.0007   49.9368 H         1 MID         0.0618
     43 H6        -39.3598  -24.6331   49.4501 H         1 MID         0.0618
     44 H7        -39.9555  -26.9426   48.8248 H         1 MID         0.0624
     45 H8        -38.6414  -31.9176   45.5135 H         1 MID         0.1702
     46 H9        -36.7135  -32.1051   44.0190 H         1 MID         0.0717
     47 H10       -35.8197  -31.0172   45.1345 H         1 MID         0.0717
     48 H11       -37.6260  -28.1250   42.3744 H         1 MID         0.0823
     49 H12       -35.8287  -30.4915   42.7056 H         1 MID         0.1885
     50 H13       -36.4670  -30.0301   40.3100 H         1 MID         0.0474
     51 H14       -37.1804  -28.4302   39.9124 H         1 MID         0.0474
     52 H15       -37.8811  -31.8963   40.7476 H         1 MID         0.0557
     53 H16       -39.5534  -27.9955   40.4240 H         1 MID         0.0557
     54 H17       -40.1298  -32.8766   40.8833 H         1 MID         0.0599
     55 H18       -41.8003  -28.9662   40.5627 H         1 MID         0.0599
     56 H19       -43.5612  -33.1524   41.1292 H         1 MID         0.3180
     57 H20       -41.8077  -33.3417   41.3976 H         1 MID         0.3180
     58 H21       -43.2884  -29.7369   40.1448 H         1 MID         0.3180
     59 H22       -44.4071  -31.0745   40.5218 H         1 MID         0.3180
     60 H23       -34.2225  -25.3039   43.1056 H         1 MID         0.0522
     61 H24       -33.3101  -26.7228   42.4886 H         1 MID         0.0522
     62 H25       -32.6548  -26.2514   44.8206 H         1 MID         0.0285
     63 H26       -33.5230  -27.8204   44.7141 H         1 MID         0.0285
     64 H27       -34.7454  -25.1930   45.6905 H         1 MID         0.0267
     65 H28       -34.1976  -26.5541   46.7269 H         1 MID         0.0267
     66 H29       -36.6056  -26.7506   46.1049 H         1 MID         0.0285
     67 H30       -35.6071  -28.1132   45.4943 H         1 MID         0.0285
     68 H31       -37.2131  -27.4315   43.8126 H         1 MID         0.0522
     69 H32       -36.6295  -25.7348   43.8978 H         1 MID         0.0522
@<TRIPOS>BOND
     1   15   14 1  
     2   16   15 1  
     3   16   17 2  
     4    1    2 2  
     5    1    3 2  
     6    1    5 1  
     7   14    1 am 
     8    5    6 ar 
     9    6    7 ar 
    10    7   13 ar 
    11    8    9 ar 
    12   13    8 ar 
    13    9   10 ar 
    14   11   10 ar 
    15   12   11 ar 
    16   13   12 ar 
    17   18   19 1  
    18   21   18 1  
    19   18   22 1  
    20   19   20 2  
    21   19   32 am 
    22   16   21 am 
    23   22   23 1  
    24   23   24 ar 
    25   23   25 ar 
    26   24   26 ar 
    27   25   27 ar 
    28   26   28 ar 
    29   27   28 ar 
    30   28   29 1  
    31   29   30 ar 
    32   29   31 ar 
    33   32   33 1  
    34   32   37 1  
    35   33   34 1  
    36   34   35 1  
    37   35   36 1  
    38   37   36 1  
    39   12    4 ar 
    40    5    4 ar 
    41    4   38 1  
    42    6   39 1  
    43    7   40 1  
    44    8   41 1  
    45    9   42 1  
    46   10   43 1  
    47   11   44 1  
    48   14   45 1  
    49   15   46 1  
    50   15   47 1  
    51   18   48 1  
    52   21   49 1  
    53   22   50 1  
    54   22   51 1  
    55   24   52 1  
    56   25   53 1  
    57   26   54 1  
    58   27   55 1  
    59   30   56 1  
    60   30   57 1  
    61   31   58 1  
    62   31   59 1  
    63   33   60 1  
    64   33   61 1  
    65   34   62 1  
    66   34   63 1  
    67   35   64 1  
    68   35   65 1  
    69   36   66 1  
    70   36   67 1  
    71   37   68 1  
    72   37   69 1  
@<TRIPOS>SUBSTRUCTURE
     1 MID         1

