### 
### Created by X-TOOL on Mon Sep 10 21:12:45 2018
### 

@<TRIPOS>MOLECULE
1ett_ligand
   59    61     1     0     0
SMALL
GAST_HUCK


@<TRIPOS>ATOM
      1 S         -36.7260  -31.8490   45.4930 S.o2      1 4QQ         0.0675
      2 O1        -35.2930  -32.2310   45.6030 O.2       1 4QQ        -0.1510
      3 O2        -37.5670  -33.0380   45.9630 O.2       1 4QQ        -0.1510
      4 C1        -37.0370  -30.4170   46.6250 C.ar      1 4QQ         0.1013
      5 C2        -36.0410  -29.5090   46.9620 C.ar      1 4QQ        -0.0419
      6 C3        -36.3700  -28.3550   47.7050 C.ar      1 4QQ        -0.0588
      7 C4        -37.6490  -28.1800   48.1990 C.ar      1 4QQ        -0.0460
      8 C5        -38.6240  -29.1290   47.9200 C.ar      1 4QQ        -0.0588
      9 C6        -38.3210  -30.2260   47.1230 C.ar      1 4QQ        -0.0419
     10 C7        -37.9910  -27.0020   49.1120 C.3       1 4QQ        -0.0311
     11 CA        -36.7880  -30.6760   43.0800 C.3       1 4QQ         0.1357
     12 C         -37.1850  -29.2170   43.3640 C.2       1 4QQ         0.2023
     13 O         -38.3260  -28.8700   43.7610 O.2       1 4QQ        -0.3946
     14 N         -37.3900  -31.6250   43.9840 N.am      1 4QQ        -0.2242
     15 CB        -37.0310  -31.0440   41.6140 C.3       1 4QQ         0.0179
     16 CG        -38.4570  -30.8170   41.1570 C.ar      1 4QQ        -0.0390
     17 CD1       -38.8130  -29.6390   40.5400 C.ar      1 4QQ        -0.0601
     18 CD2       -39.4130  -31.7560   41.4420 C.ar      1 4QQ        -0.0601
     19 CE1       -40.1270  -29.4150   40.1870 C.ar      1 4QQ        -0.0633
     20 CE2       -40.7170  -31.5230   41.0790 C.ar      1 4QQ        -0.0633
     21 CZ        -41.1020  -30.3450   40.4600 C.ar      1 4QQ         0.0188
     22 CF        -42.4470  -30.1280   40.1580 C.cat     1 4QQ         0.2318
     23 NG1       -43.2710  -31.1830   40.0910 N.pl3     1 4QQ        -0.2729
     24 NG2       -42.9010  -28.8790   39.9540 N.pl3     1 4QQ        -0.2729
     25 N1        -36.1900  -28.3530   43.2180 N.am      1 4QQ        -0.2715
     26 C2        -34.8190  -28.7220   42.9610 C.3       1 4QQ         0.0339
     27 C3        -34.0980  -28.0400   44.0820 C.3       1 4QQ        -0.0325
     28 C4        -34.1730  -26.5800   43.8280 C.3       1 4QQ        -0.0494
     29 C5        -35.6080  -26.2610   44.0440 C.3       1 4QQ        -0.0325
     30 C6        -36.4020  -26.9490   42.9930 C.3       1 4QQ         0.0339
     31 H1        -35.0163  -29.6859   46.6558 H         1 4QQ         0.0619
     32 H2        -35.6140  -27.6003   47.8896 H         1 4QQ         0.0557
     33 H3        -39.6230  -29.0136   48.3247 H         1 4QQ         0.0557
     34 H4        -39.0977  -30.9440   46.8858 H         1 4QQ         0.0619
     35 H5        -37.1081  -26.3553   49.2224 H         1 4QQ         0.0391
     36 H6        -38.2947  -27.3795   50.0995 H         1 4QQ         0.0391
     37 H7        -38.8162  -26.4237   48.6709 H         1 4QQ         0.0391
     38 H8        -35.7024  -30.7398   43.2456 H         1 4QQ         0.0777
     39 H9        -38.1988  -32.1434   43.7064 H         1 4QQ         0.1707
     40 H10       -36.7883  -32.1083   41.4784 H         1 4QQ         0.0469
     41 H11       -36.3643  -30.4331   40.9876 H         1 4QQ         0.0469
     42 H12       -38.0602  -28.8874   40.3316 H         1 4QQ         0.0557
     43 H13       -39.1426  -32.6749   41.9496 H         1 4QQ         0.0557
     44 H14       -40.3953  -28.4916   39.6866 H         1 4QQ         0.0599
     45 H15       -41.4648  -32.2810   41.2823 H         1 4QQ         0.0599
     46 H16       -44.2674  -31.0450   39.8695 H         1 4QQ         0.3180
     47 H17       -42.9078  -32.1317   40.2610 H         1 4QQ         0.3180
     48 H18       -42.2532  -28.0801   40.0095 H         1 4QQ         0.3180
     49 H19       -43.8966  -28.7211   39.7423 H         1 4QQ         0.3180
     50 H20       -34.4812  -28.3488   41.9829 H         1 4QQ         0.0522
     51 H21       -34.6839  -29.8128   43.0039 H         1 4QQ         0.0522
     52 H22       -33.0473  -28.3646   44.1071 H         1 4QQ         0.0285
     53 H23       -34.5792  -28.2808   45.0414 H         1 4QQ         0.0285
     54 H24       -33.8692  -26.3445   42.7973 H         1 4QQ         0.0267
     55 H25       -33.5369  -26.0254   44.5336 H         1 4QQ         0.0267
     56 H26       -35.7620  -25.1740   43.9747 H         1 4QQ         0.0285
     57 H27       -35.9219  -26.6132   45.0377 H         1 4QQ         0.0285
     58 H28       -37.4689  -26.6996   43.0906 H         1 4QQ         0.0522
     59 H29       -36.0482  -26.6611   41.9921 H         1 4QQ         0.0522
@<TRIPOS>BOND
     1    1    2 2  
     2    1    3 2  
     3    1    4 1  
     4    4    5 ar 
     5    4    9 ar 
     6    5    6 ar 
     7    6    7 ar 
     8    8    7 ar 
     9    7   10 1  
    10    9    8 ar 
    11   11   12 1  
    12   14   11 1  
    13   11   15 1  
    14   12   13 2  
    15   12   25 am 
    16   14    1 am 
    17   15   16 1  
    18   16   17 ar 
    19   16   18 ar 
    20   17   19 ar 
    21   18   20 ar 
    22   19   21 ar 
    23   20   21 ar 
    24   21   22 1  
    25   22   23 ar 
    26   22   24 ar 
    27   25   26 1  
    28   25   30 1  
    29   26   27 1  
    30   27   28 1  
    31   28   29 1  
    32   29   30 1  
    33    5   31 1  
    34    6   32 1  
    35    8   33 1  
    36    9   34 1  
    37   10   35 1  
    38   10   36 1  
    39   10   37 1  
    40   11   38 1  
    41   14   39 1  
    42   15   40 1  
    43   15   41 1  
    44   17   42 1  
    45   18   43 1  
    46   19   44 1  
    47   20   45 1  
    48   23   46 1  
    49   23   47 1  
    50   24   48 1  
    51   24   49 1  
    52   26   50 1  
    53   26   51 1  
    54   27   52 1  
    55   27   53 1  
    56   28   54 1  
    57   28   55 1  
    58   29   56 1  
    59   29   57 1  
    60   30   58 1  
    61   30   59 1  
@<TRIPOS>SUBSTRUCTURE
     1 4QQ         1

