### 
### Created by X-TOOL on Mon Sep 10 21:12:47 2018
### 

@<TRIPOS>MOLECULE
1etz_ligand
   49    51     1     0     0
SMALL
GAST_HUCK


@<TRIPOS>ATOM
      1 C1          8.9410   39.1790  -30.0280 C.ar      1 GAS        -0.0561
      2 C2          9.4310   38.0070  -29.4770 C.ar      1 GAS        -0.0681
      3 C3          8.7410   36.8200  -29.6320 C.ar      1 GAS        -0.0685
      4 C4          7.5530   36.8020  -30.3360 C.ar      1 GAS        -0.0681
      5 C5          7.0600   37.9730  -30.8870 C.ar      1 GAS        -0.0561
      6 C6          7.7560   39.1720  -30.7420 C.ar      1 GAS        -0.0069
      7 C7          7.3150   40.3360  -31.3810 C.3       1 GAS         0.0977
      8 N7          6.5700   41.3630  -30.6820 N.pl3     1 GAS        -0.3094
      9 C1A         7.2260   40.3030  -32.7520 C.ar      1 GAS        -0.0069
     10 C2A         6.1920   40.9790  -33.3650 C.ar      1 GAS        -0.0561
     11 C3A         6.0970   40.9860  -34.7340 C.ar      1 GAS        -0.0681
     12 C4A         7.0400   40.3140  -35.4950 C.ar      1 GAS        -0.0685
     13 C5A         8.0790   39.6340  -34.8860 C.ar      1 GAS        -0.0681
     14 C6A         8.1720   39.6300  -33.5110 C.ar      1 GAS        -0.0561
     15 C8          7.1340   42.0790  -29.7140 C.cat     1 GAS         0.1829
     16 N8          7.8890   43.1400  -30.0320 N.pl3     1 GAS        -0.3214
     17 C9          8.8550   43.7660  -29.1250 C.3       1 GAS         0.0722
     18 C10         9.8120   42.9410  -28.2740 C.2       1 GAS         0.0568
     19 O1         10.3800   43.5230  -27.3280 O.co2     1 GAS        -0.5668
     20 O2         10.2010   41.8230  -28.6830 O.co2     1 GAS        -0.5668
     21 N11         7.4300   41.4320  -28.5930 N.pl3     1 GAS        -0.2287
     22 C1B         6.6980   40.5900  -27.5150 C.ar      1 GAS         0.1771
     23 C2B         7.2200   39.3550  -27.1680 C.ar      1 GAS         0.0622
     24 C3B         6.5670   38.5500  -26.2750 C.ar      1 GAS         0.0418
     25 C4B         5.3850   38.9600  -25.7120 C.ar      1 GAS         0.1639
     26 C7B         4.6560   37.9990  -24.7990 C.1       1 GAS         0.1640
     27 N7B         4.1220   37.2440  -24.1020 N.1       1 GAS        -0.2787
     28 C5B         4.8530   40.2000  -26.0230 C.ar      1 GAS         0.0418
     29 C6B         5.5110   41.0220  -26.9300 C.ar      1 GAS         0.0622
     30 H1          9.4882   40.1059  -29.8994 H         1 GAS         0.0561
     31 H2         10.3613   38.0208  -28.9208 H         1 GAS         0.0600
     32 H3          9.1314   35.9047  -29.2019 H         1 GAS         0.0561
     33 H4          7.0075   35.8731  -30.4571 H         1 GAS         0.0600
     34 H5          6.1252   37.9570  -31.4356 H         1 GAS         0.0561
     35 H6          8.2824   40.8574  -31.3329 H         1 GAS         0.0880
     36 H7          5.5886   41.5413  -30.9387 H         1 GAS         0.1761
     37 H8          5.4559   41.5037  -32.7667 H         1 GAS         0.0561
     38 H9          5.2856   41.5163  -35.2192 H         1 GAS         0.0600
     39 H10         6.9628   40.3213  -36.5762 H         1 GAS         0.0561
     40 H11         8.8139   39.1086  -35.4851 H         1 GAS         0.0600
     41 H12         8.9833   39.1017  -33.0234 H         1 GAS         0.0561
     42 H13         7.7834   43.5412  -30.9747 H         1 GAS         0.1728
     43 H14         8.2682   44.3777  -28.4240 H         1 GAS         0.0689
     44 H15         9.4823   44.4213  -29.7471 H         1 GAS         0.0689
     45 H16         8.4339   41.5121  -28.3771 H         1 GAS         0.2538
     46 H17         8.1537   39.0234  -27.6076 H         1 GAS         0.1017
     47 H18         6.9849   37.5851  -26.0115 H         1 GAS         0.0941
     48 H19         3.9285   40.5277  -25.5616 H         1 GAS         0.0941
     49 H20         5.1022   41.9942  -27.1805 H         1 GAS         0.1017
@<TRIPOS>BOND
     1    1    2 ar 
     2    1    6 ar 
     3    2    3 ar 
     4    3    4 ar 
     5    4    5 ar 
     6    5    6 ar 
     7    6    7 1  
     8    7    8 1  
     9    7    9 1  
    10    8   15 ar 
    11    9   10 ar 
    12    9   14 ar 
    13   10   11 ar 
    14   11   12 ar 
    15   12   13 ar 
    16   13   14 ar 
    17   15   16 ar 
    18   15   21 ar 
    19   16   17 1  
    20   17   18 1  
    21   18   19 ar 
    22   18   20 ar 
    23   21   22 1  
    24   22   23 ar 
    25   22   29 ar 
    26   23   24 ar 
    27   24   25 ar 
    28   25   26 1  
    29   25   28 ar 
    30   26   27 3  
    31   28   29 ar 
    32    1   30 1  
    33    2   31 1  
    34    3   32 1  
    35    4   33 1  
    36    5   34 1  
    37    7   35 1  
    38    8   36 1  
    39   10   37 1  
    40   11   38 1  
    41   12   39 1  
    42   13   40 1  
    43   14   41 1  
    44   16   42 1  
    45   17   43 1  
    46   17   44 1  
    47   21   45 1  
    48   23   46 1  
    49   24   47 1  
    50   28   48 1  
    51   29   49 1  
@<TRIPOS>SUBSTRUCTURE
     1 GAS         1

