### 
### Created by X-TOOL on Mon Sep 10 21:12:48 2018
### 

@<TRIPOS>MOLECULE
1eub_ligand
   50    51     1     0     0
SMALL
GAST_HUCK


@<TRIPOS>ATOM
      1 NA          2.2050   -0.9770   -2.1840 N.am      1 HAV        -0.2008
      2 CA          1.3870   -1.5900   -3.2660 C.3       1 HAV         0.1355
      3 CB          0.8650   -2.9520   -2.7770 C.3       1 HAV        -0.0093
      4 CG1        -0.4170   -2.7460   -1.9720 C.3       1 HAV        -0.0588
      5 CG2         0.5730   -3.8730   -3.9670 C.3       1 HAV        -0.0588
      6 C           2.2310   -1.7740   -4.5330 C.2       1 HAV         0.2213
      7 O           3.1010   -2.6190   -4.6100 O.2       1 HAV        -0.3948
      8 O1          2.6680   -1.1190   -6.7310 O.3       1 HAV        -0.2717
      9 N           1.9550   -0.9960   -5.5400 N.am      1 HAV        -0.1626
     10 H1          0.5348   -0.9332   -3.4947 H         1 HAV         0.0760
     11 H2          1.6264   -3.4208   -2.1363 H         1 HAV         0.0339
     12 H3         -0.7907   -3.7196   -1.6221 H         1 HAV         0.0234
     13 H4         -1.1769   -2.2688   -2.6083 H         1 HAV         0.0234
     14 H5         -0.2066   -2.1013   -1.1059 H         1 HAV         0.0234
     15 H6          1.4943   -4.0234   -4.5489 H         1 HAV         0.0234
     16 H7         -0.1940   -3.4129   -4.6073 H         1 HAV         0.0234
     17 H8          0.2093   -4.8436   -3.5989 H         1 HAV         0.0234
     18 H9          3.5900   -0.9619   -6.5645 H         1 HAV         0.2490
     19 H10         1.2316   -0.3104   -5.4587 H         1 HAV         0.2217
     20 CB          3.5350   -1.5830   -1.9510 C.3       1 3MP         0.0721
     21 CG          3.3850   -2.6270   -0.8800 C.ar      1 3MP         0.0038
     22 CD1         2.9290   -2.2710    0.3770 C.ar      1 3MP        -0.0389
     23 CD2         3.6920   -3.9630   -1.1420 C.ar      1 3MP         0.0141
     24 CE1         2.7960   -3.2640    1.3310 C.ar      1 3MP        -0.0404
     25 CZ          3.1290   -4.5820    0.9900 C.ar      1 3MP         0.0042
     26 NE2         3.5690   -4.9350   -0.2270 N.ar      1 3MP        -0.3044
     27 H11         4.2457   -0.8102   -1.6228 H         1 3MP         0.0659
     28 H12         3.9014   -2.0483   -2.8779 H         1 3MP         0.0659
     29 H13         2.6824   -1.2410    0.6081 H         1 3MP         0.0678
     30 H14         4.0465   -4.2271   -2.1318 H         1 3MP         0.0766
     31 H15         2.4398   -3.0264    2.3268 H         1 3MP         0.0693
     32 H16         3.0261   -5.3526    1.7455 H         1 3MP         0.0767
     33 S           2.2350    0.6570   -2.0590 S.o2      1 MSB         0.0697
     34 OB1         2.4220    0.9320   -0.6680 O.2       1 MSB        -0.1512
     35 OB2         1.0440    1.1080   -2.6750 O.2       1 MSB        -0.1512
     36 CG          3.5920    1.3350   -2.9700 C.ar      1 MSB         0.0975
     37 CD1         3.3570    1.9710   -4.1930 C.ar      1 MSB        -0.0440
     38 CD2         4.8860    1.2520   -2.4590 C.ar      1 MSB        -0.0440
     39 CE1         4.4240    2.5280   -4.9060 C.ar      1 MSB        -0.0313
     40 CE2         5.9570    1.8050   -3.1710 C.ar      1 MSB        -0.0313
     41 CZ          5.7240    2.4450   -4.3950 C.ar      1 MSB         0.0908
     42 OH          6.7750    2.9980   -5.0960 O.3       1 MSB        -0.3212
     43 CH          6.5540    4.2980   -5.6230 C.3       1 MSB         0.0594
     44 H17         2.3494    2.0323   -4.5880 H         1 MSB         0.0608
     45 H18         5.0632    0.7591   -1.5099 H         1 MSB         0.0608
     46 H19         4.2439    3.0233   -5.8532 H         1 MSB         0.0542
     47 H20         6.9643    1.7381   -2.7760 H         1 MSB         0.0542
     48 H21         7.4542    4.6346   -6.1581 H         1 MSB         0.0577
     49 H22         6.3345    4.9947   -4.8005 H         1 MSB         0.0577
     50 H23         5.7023    4.2718   -6.3186 H         1 MSB         0.0577
@<TRIPOS>BOND
     1    1    2 1  
     2    1   20 1  
     3    1   33 am 
     4    2    3 1  
     5    2    6 1  
     6    2   10 1  
     7    3    4 1  
     8    3    5 1  
     9    3   11 1  
    10    4   12 1  
    11    4   13 1  
    12    4   14 1  
    13    5   15 1  
    14    5   16 1  
    15    5   17 1  
    16    6    7 2  
    17    6    9 am 
    18    9    8 1  
    19    8   18 1  
    20    9   19 1  
    21   20   21 1  
    22   20   27 1  
    23   20   28 1  
    24   21   22 ar 
    25   21   23 ar 
    26   22   24 ar 
    27   22   29 1  
    28   23   26 ar 
    29   23   30 1  
    30   24   25 ar 
    31   24   31 1  
    32   25   26 ar 
    33   25   32 1  
    34   33   34 2  
    35   33   35 2  
    36   33   36 1  
    37   36   37 ar 
    38   36   38 ar 
    39   37   39 ar 
    40   37   44 1  
    41   38   40 ar 
    42   38   45 1  
    43   39   41 ar 
    44   39   46 1  
    45   40   41 ar 
    46   40   47 1  
    47   41   42 1  
    48   42   43 1  
    49   43   48 1  
    50   43   49 1  
    51   43   50 1  
@<TRIPOS>SUBSTRUCTURE
     1 HAV         1

