### 
### Created by X-TOOL on Mon Sep 10 21:12:47 2018
### 

@<TRIPOS>MOLECULE
1eve_ligand
   58    61     1     0     0
SMALL
GAST_HUCK


@<TRIPOS>ATOM
      1 C1          1.0570   60.0560   71.2400 C.ar      1 E20         0.1186
      2 C2          0.1880   61.0790   71.6280 C.ar      1 E20         0.1195
      3 C3          0.3470   62.4150   71.1710 C.ar      1 E20        -0.0323
      4 C4          1.4470   62.7200   70.2700 C.ar      1 E20        -0.0400
      5 C5          2.3060   61.6650   69.8810 C.ar      1 E20         0.0147
      6 C6          2.1400   60.3710   70.3620 C.ar      1 E20        -0.0289
      7 C7          3.3650   62.0940   69.0160 C.2       1 E20         0.1224
      8 C8          3.0860   63.5900   68.7400 C.3       1 E20         0.0400
      9 C9          1.8390   63.9920   69.5580 C.3       1 E20        -0.0048
     10 C10         4.1050   64.5760   69.2450 C.3       1 E20        -0.0302
     11 C11         4.3070   65.8480   68.5330 C.3       1 E20        -0.0291
     12 C12         5.0060   65.6370   67.1950 C.3       1 E20        -0.0093
     13 C13         5.1610   66.9190   66.4250 C.3       1 E20        -0.0302
     14 N14         3.8540   67.6350   66.2370 N.4       1 E20         0.2472
     15 C15         3.1770   67.9970   67.5350 C.3       1 E20        -0.0302
     16 C16         3.0040   66.7080   68.3900 C.3       1 E20        -0.0093
     17 C17         3.7430   68.9430   65.4830 C.3       1 E20         0.0019
     18 C18         3.9920   68.8470   63.9880 C.ar      1 E20         0.0014
     19 C19         2.8640   68.6750   63.1260 C.ar      1 E20        -0.0553
     20 C20         3.0520   68.4320   61.7230 C.ar      1 E20        -0.0684
     21 C21         4.3450   68.3900   61.1950 C.ar      1 E20        -0.0687
     22 C22         5.4790   68.5980   62.0460 C.ar      1 E20        -0.0684
     23 C23         5.3100   68.8690   63.4400 C.ar      1 E20        -0.0553
     24 O24         4.3250   61.3750   68.6150 O.2       1 E20        -0.3877
     25 O25         0.8900   58.7620   71.6440 O.3       1 E20        -0.3280
     26 C26         1.8420   57.6470   71.2650 C.3       1 E20         0.0555
     27 O27        -0.9250   61.0250   72.3210 O.3       1 E20        -0.3225
     28 C28        -1.4340   59.8620   72.9280 C.3       1 E20         0.0582
     29 H1         -0.3388   63.1923   71.4880 H         1 E20         0.0466
     30 H2          2.8376   59.5948   70.0687 H         1 E20         0.0542
     31 H3          2.9314   63.7289   67.6598 H         1 E20         0.0539
     32 H4          2.0834   64.7853   70.2798 H         1 E20         0.0446
     33 H5          1.0304   64.3351   68.8958 H         1 E20         0.0446
     34 H6          5.0748   64.0569   69.2511 H         1 E20         0.0296
     35 H7          3.8186   64.8302   70.2762 H         1 E20         0.0296
     36 H8          4.9950   66.4401   69.1542 H         1 E20         0.0306
     37 H9          4.4134   64.9322   66.5933 H         1 E20         0.0320
     38 H10         6.0038   65.2124   67.3800 H         1 E20         0.0320
     39 H11         5.5829   66.6882   65.4357 H         1 E20         0.0815
     40 H12         5.8499   67.5790   66.9726 H         1 E20         0.0815
     41 H13         3.2744   66.9709   65.7480 H         1 E20         0.2048
     42 H14         2.1906   68.4371   67.3268 H         1 E20         0.0815
     43 H15         3.7944   68.7237   68.0834 H         1 E20         0.0815
     44 H16         2.6747   67.0043   69.3969 H         1 E20         0.0320
     45 H17         2.2296   66.0842   67.9197 H         1 E20         0.0320
     46 H18         4.4773   69.6441   65.9065 H         1 E20         0.0980
     47 H19         2.7280   69.3390   65.6348 H         1 E20         0.0980
     48 H20         1.8611   68.7283   63.5339 H         1 E20         0.0558
     49 H21         2.1948   68.2819   61.0767 H         1 E20         0.0599
     50 H22         4.4908   68.1994   60.1379 H         1 E20         0.0559
     51 H23         6.4779   68.5493   61.6277 H         1 E20         0.0599
     52 H24         6.1661   69.0869   64.0683 H         1 E20         0.0558
     53 H25         1.4954   56.7022   71.7091 H         1 E20         0.0570
     54 H26         2.8490   57.8810   71.6408 H         1 E20         0.0570
     55 H27         1.8731   57.5478   70.1699 H         1 E20         0.0570
     56 H28        -2.3767   60.0996   73.4427 H         1 E20         0.0576
     57 H29        -0.7045   59.4796   73.6571 H         1 E20         0.0576
     58 H30        -1.6189   59.0977   72.1588 H         1 E20         0.0576
@<TRIPOS>BOND
     1    1   25 1  
     2    1    6 ar 
     3    1    2 ar 
     4    2   27 1  
     5    2    3 ar 
     6    3    4 ar 
     7    4    9 1  
     8    4    5 ar 
     9    5    7 1  
    10    5    6 ar 
    11    7   24 2  
    12    7    8 1  
    13    8   10 1  
    14    8    9 1  
    15   10   11 1  
    16   11   16 1  
    17   11   12 1  
    18   12   13 1  
    19   13   14 1  
    20   14   17 1  
    21   14   15 1  
    22   15   16 1  
    23   17   18 1  
    24   18   23 ar 
    25   18   19 ar 
    26   19   20 ar 
    27   20   21 ar 
    28   21   22 ar 
    29   22   23 ar 
    30   27   28 1  
    31   25   26 1  
    32    3   29 1  
    33    6   30 1  
    34    8   31 1  
    35    9   32 1  
    36    9   33 1  
    37   10   34 1  
    38   10   35 1  
    39   11   36 1  
    40   12   37 1  
    41   12   38 1  
    42   13   39 1  
    43   13   40 1  
    44   14   41 1  
    45   15   42 1  
    46   15   43 1  
    47   16   44 1  
    48   16   45 1  
    49   17   46 1  
    50   17   47 1  
    51   19   48 1  
    52   20   49 1  
    53   21   50 1  
    54   22   51 1  
    55   23   52 1  
    56   26   53 1  
    57   26   54 1  
    58   26   55 1  
    59   28   56 1  
    60   28   57 1  
    61   28   58 1  
@<TRIPOS>SUBSTRUCTURE
     1 E20         1

