### 
### Created by X-TOOL on Mon Sep 10 21:12:47 2018
### 

@<TRIPOS>MOLECULE
1evh_ligand
   83    87     1     0     0
SMALL
GAST_HUCK


@<TRIPOS>ATOM
      1 C          14.4800   17.8570   21.6620 C.2       1 ACE         0.1752
      2 O          15.0350   16.8000   21.9850 O.2       1 ACE        -0.3972
      3 CH3        12.9570   17.9870   21.7120 C.3       1 ACE         0.0258
      4 N          15.0680   18.7870   20.9120 N.am      1 PHE        -0.2640
      5 CA         16.4510   18.6560   20.4610 C.3       1 PHE         0.1406
      6 C          17.2200   19.9500   20.6710 C.2       1 PHE         0.2085
      7 O          16.6310   21.0330   20.7280 O.2       1 PHE        -0.3940
      8 CB         16.5190   18.3180   18.9670 C.3       1 PHE         0.0214
      9 CG         15.8980   17.0060   18.6060 C.ar      1 PHE        -0.0386
     10 CD1        14.5300   16.9060   18.3940 C.ar      1 PHE        -0.0601
     11 CD2        16.6850   15.8670   18.4730 C.ar      1 PHE        -0.0601
     12 CE1        13.9530   15.6910   18.0520 C.ar      1 PHE        -0.0686
     13 CE2        16.1140   14.6460   18.1320 C.ar      1 PHE        -0.0686
     14 CZ         14.7480   14.5580   17.9200 C.ar      1 PHE        -0.0687
     15 N          18.5520   19.8570   20.7940 N.am      1 PRO        -0.2497
     16 CA         19.3470   21.0680   20.9880 C.3       1 PRO         0.1340
     17 C          19.5160   21.7620   19.6420 C.2       1 PRO         0.2066
     18 O          19.3160   21.1520   18.5870 O.2       1 PRO        -0.3942
     19 CB         20.6660   20.5270   21.5330 C.3       1 PRO        -0.0104
     20 CG         20.8020   19.2330   20.7980 C.3       1 PRO        -0.0281
     21 CD         19.3980   18.6540   20.9000 C.3       1 PRO         0.0369
     22 N          19.8820   23.0500   19.6560 N.am      1 PRO        -0.2498
     23 CA         20.0650   23.7770   18.3990 C.3       1 PRO         0.1340
     24 C          21.2580   23.2400   17.6090 C.2       1 PRO         0.2066
     25 O          22.2090   22.7130   18.1870 O.2       1 PRO        -0.3942
     26 CB         20.2740   25.2140   18.8670 C.3       1 PRO        -0.0104
     27 CG         20.9720   25.0340   20.1750 C.3       1 PRO        -0.0281
     28 CD         20.1780   23.9140   20.8120 C.3       1 PRO         0.0369
     29 N          21.2110   23.3490   16.2730 N.am      1 PRO        -0.2498
     30 CA         22.3160   22.8650   15.4440 C.3       1 PRO         0.1339
     31 C          23.5600   23.7370   15.6310 C.2       1 PRO         0.2060
     32 O          23.4890   24.8100   16.2320 O.2       1 PRO        -0.3942
     33 CB         21.7400   22.9390   14.0300 C.3       1 PRO        -0.0104
     34 CG         20.7890   24.0890   14.1150 C.3       1 PRO        -0.0281
     35 CD         20.1040   23.8460   15.4360 C.3       1 PRO         0.0369
     36 N          24.7170   23.2800   15.1310 N.am      1 PRO        -0.2556
     37 CA         25.9890   24.0050   15.2370 C.3       1 PRO         0.0972
     38 C          25.9110   25.4350   14.7050 C.2       1 PRO         0.0603
     39 O          26.3250   26.3560   15.4410 O.co2     1 PRO        -0.5666
     40 CB         26.9460   23.1390   14.4240 C.3       1 PRO        -0.0159
     41 CG         26.4040   21.7700   14.6300 C.3       1 PRO        -0.0288
     42 CD         24.9200   21.9820   14.4650 C.3       1 PRO         0.0362
     43 O1         25.4440   25.6780   13.5603 O.co2     1 PRO        -0.5666
     44 H1         12.6644   18.9969   21.3887 H         1 ACE         0.0467
     45 H2         12.6080   17.8159   22.7410 H         1 ACE         0.0467
     46 H3         12.5032   17.2418   21.0422 H         1 ACE         0.0467
     47 H4         14.5471   19.5994   20.6497 H         1 PHE         0.1884
     48 H5         16.9312   17.8510   21.0367 H         1 PHE         0.0823
     49 H6         17.5769   18.2930   18.6668 H         1 PHE         0.0474
     50 H7         15.9984   19.1109   18.4099 H         1 PHE         0.0474
     51 H8         13.9057   17.7862   18.4966 H         1 PHE         0.0557
     52 H9         17.7546   15.9319   18.6369 H         1 PHE         0.0557
     53 H10        12.8835   15.6254   17.8879 H         1 PHE         0.0599
     54 H11        16.7368   13.7644   18.0322 H         1 PHE         0.0599
     55 H12        14.2999   13.6081   17.6518 H         1 PHE         0.0559
     56 H13        18.8758   21.7549   21.7063 H         1 PRO         0.0802
     57 H14        20.6125   20.3650   22.6197 H         1 PRO         0.0313
     58 H15        21.5008   21.2057   21.3041 H         1 PRO         0.0313
     59 H16        21.5401   18.5759   21.2811 H         1 PRO         0.0287
     60 H17        21.0895   19.3987   19.7492 H         1 PRO         0.0287
     61 H18        19.2465   18.1444   21.8630 H         1 PRO         0.0524
     62 H19        19.1962   17.9518   20.0777 H         1 PRO         0.0524
     63 H20        19.1637   23.7034   17.7728 H         1 PRO         0.0802
     64 H21        19.3127   25.7324   18.9983 H         1 PRO         0.0313
     65 H22        20.8995   25.7754   18.1574 H         1 PRO         0.0313
     66 H23        20.9249   25.9506   20.7813 H         1 PRO         0.0287
     67 H24        22.0231   24.7443   20.0292 H         1 PRO         0.0287
     68 H25        19.2545   24.2922   21.2747 H         1 PRO         0.0524
     69 H26        20.7745   23.3807   21.5668 H         1 PRO         0.0524
     70 H27        22.5701   21.8257   15.6995 H         1 PRO         0.0802
     71 H28        21.2138   22.0092   13.7681 H         1 PRO         0.0313
     72 H29        22.5307   23.1336   13.2905 H         1 PRO         0.0313
     73 H30        20.0684   24.0717   13.2841 H         1 PRO         0.0287
     74 H31        21.3251   25.0495   14.1156 H         1 PRO         0.0287
     75 H32        19.3075   23.0934   15.3400 H         1 PRO         0.0524
     76 H33        19.6821   24.7764   15.8438 H         1 PRO         0.0524
     77 H34        26.3127   24.0460   16.2875 H         1 PRO         0.0728
     78 H35        27.9747   23.2196   14.8050 H         1 PRO         0.0306
     79 H36        26.9261   23.4174   13.3600 H         1 PRO         0.0306
     80 H37        26.6430   21.3944   15.6359 H         1 PRO         0.0286
     81 H38        26.7925   21.0703   13.8754 H         1 PRO         0.0286
     82 H39        24.3455   21.1852   14.9601 H         1 PRO         0.0524
     83 H40        24.6394   22.0304   13.4025 H         1 PRO         0.0524
@<TRIPOS>BOND
     1    1    2 2  
     2    1    3 1  
     3    6    5 1  
     4    5    8 1  
     5    5    4 1  
     6    8    9 1  
     7    9   11 ar 
     8    9   10 ar 
     9   10   12 ar 
    10   12   14 ar 
    11   13   14 ar 
    12   11   13 ar 
    13    6    7 2  
    14   16   15 1  
    15   16   19 1  
    16   17   16 1  
    17   17   18 2  
    18   19   20 1  
    19   20   21 1  
    20   15   21 1  
    21   23   22 1  
    22   23   26 1  
    23   24   23 1  
    24   24   25 2  
    25   26   27 1  
    26   27   28 1  
    27   22   28 1  
    28   30   29 1  
    29   30   33 1  
    30   31   30 1  
    31   31   32 2  
    32   33   34 1  
    33   34   35 1  
    34   29   35 1  
    35   36   37 1  
    36   37   40 1  
    37   37   38 1  
    38   38   39 ar 
    39   41   40 1  
    40   42   41 1  
    41   36   42 1  
    42    4    1 am 
    43   15    6 am 
    44   22   17 am 
    45   29   24 am 
    46   31   36 am 
    47   38   43 ar 
    48    3   44 1  
    49    3   45 1  
    50    3   46 1  
    51    4   47 1  
    52    5   48 1  
    53    8   49 1  
    54    8   50 1  
    55   10   51 1  
    56   11   52 1  
    57   12   53 1  
    58   13   54 1  
    59   14   55 1  
    60   16   56 1  
    61   19   57 1  
    62   19   58 1  
    63   20   59 1  
    64   20   60 1  
    65   21   61 1  
    66   21   62 1  
    67   23   63 1  
    68   26   64 1  
    69   26   65 1  
    70   27   66 1  
    71   27   67 1  
    72   28   68 1  
    73   28   69 1  
    74   30   70 1  
    75   33   71 1  
    76   33   72 1  
    77   34   73 1  
    78   34   74 1  
    79   35   75 1  
    80   35   76 1  
    81   37   77 1  
    82   40   78 1  
    83   40   79 1  
    84   41   80 1  
    85   41   81 1  
    86   42   82 1  
    87   42   83 1  
@<TRIPOS>SUBSTRUCTURE
     1 ACE         1

