### 
### Created by X-TOOL on Mon Sep 10 21:12:48 2018
### 

@<TRIPOS>MOLECULE
1exv_ligand
   49    52     1     0     0
SMALL
GAST_HUCK


@<TRIPOS>ATOM
      1 C10        97.6380   92.2600   75.7210 C.3       1 700         0.0213
      2 C11        97.6230   91.2390   74.5590 C.ar      1 700        -0.0386
      3 C12        98.7270   90.3510   74.3240 C.ar      1 700        -0.0601
      4 C13        98.6790   89.4100   73.2590 C.ar      1 700        -0.0686
      5 C14        97.5380   89.3350   72.4210 C.ar      1 700        -0.0687
      6 C15        96.4380   90.2120   72.6430 C.ar      1 700        -0.0686
      7 C16        96.4830   91.1610   73.7070 C.ar      1 700        -0.0601
      8 C17        96.7350   91.8380   76.9520 C.3       1 700         0.1399
      9 C18        97.2770   90.5970   77.4450 C.2       1 700         0.2063
     10 O2         98.2570   90.6450   78.1600 O.2       1 700        -0.3941
     11 N3         96.7170   89.4350   77.0000 N.am      1 700        -0.2673
     12 C19        95.4720   89.1040   76.2700 C.3       1 700         0.0502
     13 C20        95.7740   87.6130   76.4730 C.3       1 700         0.0524
     14 C21        94.7080   86.6570   77.0280 C.2       1 700         0.0417
     15 O3         93.5360   87.0200   76.8360 O.co2     1 700        -0.5686
     16 O4         95.1640   85.6300   77.5470 O.co2     1 700        -0.5686
     17 C22        97.0260   88.0630   77.3670 C.3       1 700         0.0502
     18 N1         96.7280   92.9170   77.9730 N.am      1 700        -0.2619
     19 C9         95.9860   92.8420   79.1270 C.2       1 700         0.2292
     20 C8         95.9830   93.9110   80.1670 C.2       1 700         0.1323
     21 C7         96.7220   95.2410   80.2310 C.2       1 700        -0.0391
     22 C6         96.3170   95.8390   81.5580 C.ar      1 700        -0.0169
     23 C1         95.4320   94.8700   82.0970 C.ar      1 700         0.0680
     24 C2         94.8200   95.0610   83.3710 C.ar      1 700        -0.0398
     25 C3         95.1350   96.2440   84.0960 C.ar      1 700        -0.0600
     26 C4         96.0280   97.2130   83.5590 C.ar      1 700         0.0253
     27 CL1        96.3760   98.6320   84.4890 Cl        1 700        -0.0811
     28 C5         96.6350   97.0270   82.2740 C.ar      1 700        -0.0571
     29 N2         95.2830   93.8100   81.2570 N.pl3     1 700        -0.2669
     30 O1         95.2910   91.8780   79.3700 O.2       1 700        -0.3839
     31 H1         97.2752   93.2257   75.3393 H         1 700         0.0474
     32 H2         98.6744   92.3706   76.0726 H         1 700         0.0474
     33 H3         99.6019   90.3984   74.9622 H         1 700         0.0557
     34 H4         99.5190   88.7467   73.0871 H         1 700         0.0599
     35 H5         97.5029   88.6124   71.6137 H         1 700         0.0559
     36 H6         95.5652   90.1582   72.0024 H         1 700         0.0599
     37 H7         95.6439   91.8279   73.8688 H         1 700         0.0557
     38 H8         95.7011   91.6717   76.6152 H         1 700         0.0823
     39 H9         95.4659   89.4248   75.2179 H         1 700         0.0544
     40 H10        94.5524   89.4503   76.7643 H         1 700         0.0544
     41 H11        96.1077   87.1475   75.5339 H         1 700         0.0506
     42 H12        96.9261   87.8419   78.4399 H         1 700         0.0544
     43 H13        98.0001   87.7005   77.0070 H         1 700         0.0544
     44 H14        97.2862   93.7313   77.8139 H         1 700         0.1875
     45 H15        97.3930   95.6663   79.4861 H         1 700         0.0400
     46 H16        94.1341   94.3255   83.7756 H         1 700         0.0550
     47 H17        94.6889   96.4093   85.0701 H         1 700         0.0556
     48 H18        97.3129   97.7657   81.8618 H         1 700         0.0564
     49 H19        94.6743   93.0055   81.4650 H         1 700         0.2262
@<TRIPOS>BOND
     1    1    2 1  
     2    1    8 1  
     3    2    3 ar 
     4    2    7 ar 
     5    3    4 ar 
     6    4    5 ar 
     7    5    6 ar 
     8    6    7 ar 
     9    8    9 1  
    10    8   18 1  
    11    9   10 2  
    12    9   11 am 
    13   11   12 1  
    14   11   17 1  
    15   12   13 1  
    16   13   14 1  
    17   13   17 1  
    18   14   15 ar 
    19   14   16 ar 
    20   18   19 am 
    21   19   20 1  
    22   19   30 2  
    23   20   21 2  
    24   20   29 1  
    25   21   22 1  
    26   22   23 ar 
    27   22   28 ar 
    28   23   24 ar 
    29   23   29 1  
    30   24   25 ar 
    31   25   26 ar 
    32   26   27 1  
    33   26   28 ar 
    34    1   31 1  
    35    1   32 1  
    36    3   33 1  
    37    4   34 1  
    38    5   35 1  
    39    6   36 1  
    40    7   37 1  
    41    8   38 1  
    42   12   39 1  
    43   12   40 1  
    44   13   41 1  
    45   17   42 1  
    46   17   43 1  
    47   18   44 1  
    48   21   45 1  
    49   24   46 1  
    50   25   47 1  
    51   28   48 1  
    52   29   49 1  
@<TRIPOS>SUBSTRUCTURE
     1 700         1

