### 
### Created by X-TOOL on Mon Sep 10 21:12:48 2018
### 

@<TRIPOS>MOLECULE
1exw_ligand
   53    52     1     0     0
SMALL
GAST_HUCK


@<TRIPOS>ATOM
      1 C1         42.9280    9.5870   58.8790 C.3       1 HDS         0.0141
      2 C2         42.4020    8.1950   58.9090 C.3       1 HDS        -0.0380
      3 C3         43.3180    7.4860   59.9130 C.3       1 HDS        -0.0517
      4 C4         42.9660    5.9840   60.0950 C.3       1 HDS        -0.0530
      5 C5         41.6680    5.9380   60.9320 C.3       1 HDS        -0.0531
      6 C6         40.5870    5.1780   60.2490 C.3       1 HDS        -0.0531
      7 C7         40.3280    3.8060   60.9430 C.3       1 HDS        -0.0531
      8 C8         39.2100    3.1460   60.1060 C.3       1 HDS        -0.0531
      9 C9         38.6800    1.8610   60.8410 C.3       1 HDS        -0.0531
     10 C10        37.6330    1.2890   59.9530 C.3       1 HDS        -0.0531
     11 C11        38.0770    0.3380   58.8450 C.3       1 HDS        -0.0531
     12 C12        36.7940   -0.0060   58.1900 C.3       1 HDS        -0.0531
     13 C13        36.3680   -1.4740   58.1560 C.3       1 HDS        -0.0531
     14 C14        34.9320   -1.5630   57.7120 C.3       1 HDS        -0.0533
     15 C15        34.4130   -3.0320   57.6580 C.3       1 HDS        -0.0559
     16 C16        32.9770   -2.9910   57.7820 C.3       1 HDS        -0.0653
     17 S1         42.4510   10.9840   59.0130 S.o2      1 HDS        -0.2704
     18 O1S        41.3870   11.3750   57.7520 O.co2     1 HDS        -0.5011
     19 O2S        41.4500   11.5150   60.4350 O.co2     1 HDS        -0.5011
     20 H1         43.4100    9.6159   57.8907 H         1 HDS         0.0453
     21 H2         43.6993    9.5448   59.6621 H         1 HDS         0.0453
     22 H3         42.4712    7.7273   57.9158 H         1 HDS         0.0279
     23 H4         41.3565    8.1773   59.2506 H         1 HDS         0.0279
     24 H5         43.2268    7.9885   60.8872 H         1 HDS         0.0266
     25 H6         44.3558    7.5627   59.5565 H         1 HDS         0.0266
     26 H7         43.7784    5.4643   60.6242 H         1 HDS         0.0265
     27 H8         42.8041    5.5099   59.1157 H         1 HDS         0.0265
     28 H9         41.3219    6.9675   61.1062 H         1 HDS         0.0265
     29 H10        41.8851    5.4560   61.8966 H         1 HDS         0.0265
     30 H11        40.8802    5.0003   59.2038 H         1 HDS         0.0265
     31 H12        39.6614    5.7718   60.2743 H         1 HDS         0.0265
     32 H13        39.9986    3.9533   61.9821 H         1 HDS         0.0265
     33 H14        41.2376    3.1876   60.9308 H         1 HDS         0.0265
     34 H15        39.6099    2.8640   59.1208 H         1 HDS         0.0265
     35 H16        38.3826    3.8590   59.9755 H         1 HDS         0.0265
     36 H17        38.2498    2.1282   61.8175 H         1 HDS         0.0265
     37 H18        39.4965    1.1381   60.9854 H         1 HDS         0.0265
     38 H19        37.1146    2.1320   59.4727 H         1 HDS         0.0265
     39 H20        36.9259    0.7398   60.5920 H         1 HDS         0.0265
     40 H21        38.5647   -0.5565   59.2597 H         1 HDS         0.0265
     41 H22        38.7614    0.8366   58.1428 H         1 HDS         0.0265
     42 H23        36.8580    0.3387   57.1474 H         1 HDS         0.0265
     43 H24        36.0021    0.5508   58.7124 H         1 HDS         0.0265
     44 H25        36.4700   -1.9100   59.1607 H         1 HDS         0.0265
     45 H26        37.0061   -2.0260   57.4502 H         1 HDS         0.0265
     46 H27        34.8452   -1.1213   56.7083 H         1 HDS         0.0265
     47 H28        34.3087   -0.9946   58.4180 H         1 HDS         0.0265
     48 H29        34.8447   -3.6132   58.4862 H         1 HDS         0.0263
     49 H30        34.6938   -3.4942   56.7002 H         1 HDS         0.0263
     50 H31        32.5766   -4.0150   57.7476 H         1 HDS         0.0230
     51 H32        32.5540   -2.4040   56.9535 H         1 HDS         0.0230
     52 H33        32.7048   -2.5229   58.7395 H         1 HDS         0.0230
     53 H34        43.2732   11.5658   58.9736 H         1 HDS         0.1485
@<TRIPOS>BOND
     1    1    2 1  
     2    1   17 1  
     3    2    3 1  
     4    3    4 1  
     5    4    5 1  
     6    5    6 1  
     7    6    7 1  
     8    7    8 1  
     9    8    9 1  
    10    9   10 1  
    11   10   11 1  
    12   11   12 1  
    13   12   13 1  
    14   13   14 1  
    15   14   15 1  
    16   15   16 1  
    17   17   18 ar 
    18   17   19 ar 
    19    1   20 1  
    20    1   21 1  
    21    2   22 1  
    22    2   23 1  
    23    3   24 1  
    24    3   25 1  
    25    4   26 1  
    26    4   27 1  
    27    5   28 1  
    28    5   29 1  
    29    6   30 1  
    30    6   31 1  
    31    7   32 1  
    32    7   33 1  
    33    8   34 1  
    34    8   35 1  
    35    9   36 1  
    36    9   37 1  
    37   10   38 1  
    38   10   39 1  
    39   11   40 1  
    40   11   41 1  
    41   12   42 1  
    42   12   43 1  
    43   13   44 1  
    44   13   45 1  
    45   14   46 1  
    46   14   47 1  
    47   15   48 1  
    48   15   49 1  
    49   16   50 1  
    50   16   51 1  
    51   16   52 1  
    52   17   53 1  
@<TRIPOS>SUBSTRUCTURE
     1 HDS         1

