### 
### Created by X-TOOL on Mon Sep 10 21:12:49 2018
### 

@<TRIPOS>MOLECULE
1ez9_ligand
   89    91     1     0     0
SMALL
GAST_HUCK


@<TRIPOS>ATOM
      1 C1         -6.6140    0.8650    6.3550 C.3       1 GLO         0.0727
      2 C2         -5.9370   -0.2770    5.6270 C.3       1 GLO         0.1065
      3 C3         -6.7510   -1.5720    5.6740 C.3       1 GLO         0.1118
      4 C4         -5.9180   -2.7660    5.1960 C.3       1 GLO         0.1179
      5 C5         -6.6950   -4.0770    5.3050 C.3       1 GLO         0.1069
      6 C6         -7.3740   -4.3140    6.6380 C.3       1 GLO         0.0727
      7 O1         -6.5280    0.6930    7.7620 O.3       1 GLO        -0.3924
      8 O2         -5.6860    0.0930    4.2800 O.3       1 GLO        -0.3869
      9 O3         -7.9140   -1.4430    4.8690 O.3       1 GLO        -0.3865
     10 O4         -5.5420   -2.5680    3.8210 O.3       1 GLO        -0.3402
     11 O5         -7.6500   -4.1500    4.2590 O.3       1 GLO        -0.3869
     12 O6         -7.9470   -5.6140    6.6860 O.3       1 GLO        -0.3924
     13 C1         -4.3670   -3.1760    3.3690 C.3       1 GLC         0.1884
     14 C2         -3.7930   -2.3680    2.2060 C.3       1 GLC         0.1341
     15 C3         -4.5520   -2.6660    0.9010 C.3       1 GLC         0.1144
     16 C4         -4.6890   -4.1740    0.6580 C.3       1 GLC         0.1184
     17 C5         -5.2400   -4.8630    1.9030 C.3       1 GLC         0.1134
     18 C6         -5.2940   -6.3690    1.7780 C.3       1 GLC         0.0730
     19 O2         -3.8930   -0.9830    2.5090 O.3       1 GLC        -0.3841
     20 O3         -3.8590   -2.0820   -0.1910 O.3       1 GLC        -0.3864
     21 O4         -5.5940   -4.3970   -0.4370 O.3       1 GLC        -0.3401
     22 O5         -4.4120   -4.5580    3.0400 O.3       1 GLC        -0.3405
     23 O6         -6.1250   -6.9230    2.7820 O.3       1 GLC        -0.3924
     24 C1         -5.0010   -4.6820   -1.6710 C.3       1 GLC         0.1884
     25 C2         -5.8070   -4.0150   -2.7860 C.3       1 GLC         0.1341
     26 C3         -7.1840   -4.6740   -2.8670 C.3       1 GLC         0.1144
     27 C4         -7.0360   -6.1840   -3.1020 C.3       1 GLC         0.1184
     28 C5         -6.1440   -6.8040   -2.0110 C.3       1 GLC         0.1134
     29 C6         -5.8010   -8.2550   -2.3290 C.3       1 GLC         0.0730
     30 O2         -5.9510   -2.6290   -2.5020 O.3       1 GLC        -0.3841
     31 O3         -7.9410   -4.0880   -3.9160 O.3       1 GLC        -0.3864
     32 O4         -8.3340   -6.8070   -3.0670 O.3       1 GLC        -0.3401
     33 O5         -4.8880   -6.0870   -1.9150 O.3       1 GLC        -0.3405
     34 O6         -5.6220   -9.0270   -1.1510 O.3       1 GLC        -0.3924
     35 C1         -8.7940   -7.3450   -4.2770 C.3       1 GLC         0.1884
     36 C2        -10.1890   -6.7940   -4.5960 C.3       1 GLC         0.1341
     37 C3        -11.1970   -7.3020   -3.5580 C.3       1 GLC         0.1141
     38 C4        -11.1820   -8.8290   -3.5420 C.3       1 GLC         0.1119
     39 C5         -9.7550   -9.3300   -3.2750 C.3       1 GLC         0.1130
     40 C6         -9.6380  -10.8430   -3.3620 C.3       1 GLC         0.0730
     41 O2        -10.1660   -5.3750   -4.5990 O.3       1 GLC        -0.3841
     42 O3        -12.5000   -6.8370   -3.8770 O.3       1 GLC        -0.3864
     43 O4        -12.0570   -9.3070   -2.5330 O.3       1 GLC        -0.3865
     44 O5         -8.8390   -8.7710   -4.2500 O.3       1 GLC        -0.3405
     45 O6         -8.6070  -11.3330   -2.5120 O.3       1 GLC        -0.3924
     46 H1         -6.1237    1.8097    6.0773 H         1 GLO         0.0584
     47 H2         -7.6733    0.9014    6.0610 H         1 GLO         0.0584
     48 H3         -4.9724   -0.4676    6.1202 H         1 GLO         0.0643
     49 H4         -7.0586   -1.7540    6.7143 H         1 GLO         0.0647
     50 H5         -5.0119   -2.8359    5.8157 H         1 GLO         0.0650
     51 H6         -5.9711   -4.8931    5.1641 H         1 GLO         0.0643
     52 H7         -8.1670   -3.5646    6.7776 H         1 GLO         0.0584
     53 H8         -6.6315   -4.2167    7.4438 H         1 GLO         0.0584
     54 H9         -6.9588    1.4202    8.1957 H         1 GLO         0.2095
     55 H10        -5.2614   -0.6272    3.8288 H         1 GLO         0.2100
     56 H11        -8.4131   -2.2506    4.9038 H         1 GLO         0.2100
     57 H12        -8.2517   -3.4182    4.3294 H         1 GLO         0.2100
     58 H13        -8.5911   -5.7008    5.9930 H         1 GLO         0.2095
     59 H14        -3.6532   -3.0969    4.2022 H         1 GLO         0.0938
     60 H15        -2.7344   -2.6353    2.0718 H         1 GLO         0.0671
     61 H16        -5.5577   -2.2256    0.9692 H         1 GLO         0.0648
     62 H17        -3.7025   -4.5949    0.4137 H         1 GLO         0.0651
     63 H18        -6.2582   -4.4870    2.0814 H         1 GLO         0.0647
     64 H19        -4.2781   -6.7772    1.8838 H         1 GLO         0.0584
     65 H20        -5.6952   -6.6355    0.7891 H         1 GLO         0.0584
     66 H21        -4.8057   -0.7535    2.6390 H         1 GLO         0.2101
     67 H22        -3.8033   -1.1423   -0.0632 H         1 GLO         0.2100
     68 H23        -5.7798   -6.6969    3.6376 H         1 GLO         0.2095
     69 H24        -3.9868   -4.2561   -1.6691 H         1 GLO         0.0938
     70 H25        -5.2831   -4.1394   -3.7452 H         1 GLO         0.0671
     71 H26        -7.7114   -4.5132   -1.9152 H         1 GLO         0.0648
     72 H27        -6.5761   -6.3539   -4.0867 H         1 GLO         0.0651
     73 H28        -6.6744   -6.7542   -1.0486 H         1 GLO         0.0647
     74 H29        -4.8707   -8.2803   -2.9155 H         1 GLO         0.0584
     75 H30        -6.6191   -8.6925   -2.9200 H         1 GLO         0.0584
     76 H31        -6.4051   -2.5220   -1.6745 H         1 GLO         0.2101
     77 H32        -8.7944   -4.5030   -3.9592 H         1 GLO         0.2100
     78 H33        -6.4234   -9.0150   -0.6411 H         1 GLO         0.2095
     79 H34        -8.1020   -7.0371   -5.0747 H         1 GLO         0.0938
     80 H35       -10.4932   -7.1472   -5.5923 H         1 GLO         0.0671
     81 H36       -10.9135   -6.9260   -2.5639 H         1 GLO         0.0648
     82 H37       -11.5193   -9.2040   -4.5195 H         1 GLO         0.0647
     83 H38        -9.4577   -9.0070   -2.2664 H         1 GLO         0.0647
     84 H39        -9.4103  -11.1254   -4.4004 H         1 GLO         0.0584
     85 H40       -10.5950  -11.2941   -3.0607 H         1 GLO         0.0584
     86 H41        -9.8953   -5.0620   -3.7438 H         1 GLO         0.2101
     87 H42       -13.1166   -7.1567   -3.2288 H         1 GLO         0.2100
     88 H43       -11.7721   -8.9805   -1.6876 H         1 GLO         0.2100
     89 H44        -8.8003  -11.0960   -1.6126 H         1 GLO         0.2095
@<TRIPOS>BOND
     1    1    7 1  
     2    2    1 1  
     3    2    8 1  
     4    3    2 1  
     5    3    9 1  
     6    4    3 1  
     7   10    4 1  
     8    4    5 1  
     9    5   11 1  
    10    5    6 1  
    11    6   12 1  
    12   22   13 1  
    13   14   13 1  
    14   14   19 1  
    15   15   14 1  
    16   15   20 1  
    17   16   15 1  
    18   21   16 1  
    19   16   17 1  
    20   17   22 1  
    21   17   18 1  
    22   18   23 1  
    23   33   24 1  
    24   25   24 1  
    25   25   30 1  
    26   26   25 1  
    27   26   31 1  
    28   27   26 1  
    29   32   27 1  
    30   27   28 1  
    31   28   33 1  
    32   28   29 1  
    33   29   34 1  
    34   35   44 1  
    35   35   36 1  
    36   36   41 1  
    37   36   37 1  
    38   37   42 1  
    39   37   38 1  
    40   38   43 1  
    41   39   38 1  
    42   44   39 1  
    43   39   40 1  
    44   40   45 1  
    45   13   10 1  
    46   24   21 1  
    47   32   35 1  
    48    1   46 1  
    49    1   47 1  
    50    2   48 1  
    51    3   49 1  
    52    4   50 1  
    53    5   51 1  
    54    6   52 1  
    55    6   53 1  
    56    7   54 1  
    57    8   55 1  
    58    9   56 1  
    59   11   57 1  
    60   12   58 1  
    61   13   59 1  
    62   14   60 1  
    63   15   61 1  
    64   16   62 1  
    65   17   63 1  
    66   18   64 1  
    67   18   65 1  
    68   19   66 1  
    69   20   67 1  
    70   23   68 1  
    71   24   69 1  
    72   25   70 1  
    73   26   71 1  
    74   27   72 1  
    75   28   73 1  
    76   29   74 1  
    77   29   75 1  
    78   30   76 1  
    79   31   77 1  
    80   34   78 1  
    81   35   79 1  
    82   36   80 1  
    83   37   81 1  
    84   38   82 1  
    85   39   83 1  
    86   40   84 1  
    87   40   85 1  
    88   41   86 1  
    89   42   87 1  
    90   43   88 1  
    91   45   89 1  
@<TRIPOS>SUBSTRUCTURE
     1 GLO         1

