### 
### Created by X-TOOL on Mon Sep 10 21:12:47 2018
### 

@<TRIPOS>MOLECULE
1ezf_ligand
   69    72     1     0     0
SMALL
GAST_HUCK


@<TRIPOS>ATOM
      1 C1         -9.8250   43.3230   32.4290 C.ar      1 IN0         0.0208
      2 C7        -10.8190   42.5380   33.3050 C.3       1 IN0         0.1281
      3 C17       -10.2330   41.8570   34.5510 C.ar      1 IN0         0.0052
      4 C28       -10.2640   42.5110   35.8050 C.ar      1 IN0        -0.0567
      5 C27        -9.7560   41.8760   36.9520 C.ar      1 IN0        -0.0704
      6 C26        -9.2170   40.5750   36.8490 C.ar      1 IN0        -0.0630
      7 C16        -9.1820   39.9110   35.6060 C.ar      1 IN0        -0.0241
      8 C29        -8.6750   38.5990   35.5140 C.ar      1 IN0        -0.0569
      9 C30        -8.6630   37.9340   34.2770 C.ar      1 IN0        -0.0630
     10 C31        -9.1480   38.5740   33.1260 C.ar      1 IN0        -0.0626
     11 C33        -9.6550   39.8770   33.2120 C.ar      1 IN0        -0.0547
     12 C15        -9.6850   40.5540   34.4480 C.ar      1 IN0        -0.0083
     13 O6        -11.9650   43.3530   33.6390 O.3       1 IN0        -0.3270
     14 C5        -12.5400   44.0730   32.5250 C.3       1 IN0         0.1745
     15 C14       -13.9540   44.5680   32.9380 C.3       1 IN0         0.0818
     16 C11       -14.4520   45.7140   32.0960 C.2       1 IN0         0.1826
     17 O58       -13.6840   46.6030   31.7710 O.2       1 IN0        -0.3967
     18 N23       -15.7550   45.7020   31.7270 N.am      1 IN0        -0.2696
     19 C38       -16.2950   46.7880   30.9000 C.3       1 IN0         0.1057
     20 C61       -16.8620   46.2850   29.5470 C.3       1 IN0         0.0351
     21 C62       -17.6300   47.3780   28.8310 C.2       1 IN0         0.0387
     22 O64       -18.9440   47.1510   28.6390 O.co2     1 IN0        -0.5688
     23 O63       -17.0870   48.4140   28.4520 O.co2     1 IN0        -0.5688
     24 C60       -17.3750   47.5360   31.6510 C.2       1 IN0         0.0618
     25 O66       -18.3330   46.8370   32.2850 O.co2     1 IN0        -0.5665
     26 O65       -17.3720   48.7610   31.6660 O.co2     1 IN0        -0.5665
     27 C4        -12.5580   43.2290   31.2560 C.2       1 IN0         0.2367
     28 O13       -13.6180   42.7150   30.9310 O.2       1 IN0        -0.3823
     29 N3        -11.3870   43.0760   30.5430 N.am      1 IN0        -0.2193
     30 C2        -10.1390   43.5610   31.0700 C.ar      1 IN0         0.0771
     31 C8         -9.2300   44.2480   30.2510 C.ar      1 IN0        -0.0459
     32 C9         -8.0360   44.7280   30.7840 C.ar      1 IN0        -0.0682
     33 C20        -7.7310   44.5240   32.1440 C.ar      1 IN0         0.0178
     34 CL36       -6.2490   45.1490   32.8000 Cl        1 IN0        -0.0865
     35 C21        -8.6210   43.8120   32.9640 C.ar      1 IN0        -0.0549
     36 C43       -11.4260   42.4940   29.1890 C.3       1 IN0         0.0594
     37 C10       -11.1420   40.9710   28.9980 C.3       1 IN0        -0.0125
     38 C32       -12.2030   40.1100   29.7570 C.3       1 IN0        -0.0578
     39 C25       -11.1940   40.5860   27.4850 C.3       1 IN0        -0.0578
     40 C24        -9.7300   40.5860   29.5540 C.3       1 IN0        -0.0578
     41 H1        -11.1906   41.7199   32.6704 H         1 IN0         0.0908
     42 H2        -10.6821   43.5081   35.8821 H         1 IN0         0.0533
     43 H3         -9.7780   42.3825   37.9102 H         1 IN0         0.0595
     44 H4         -8.8271   40.0830   37.7327 H         1 IN0         0.0543
     45 H5         -8.2939   38.1027   36.3991 H         1 IN0         0.0608
     46 H6         -8.2778   36.9229   34.2111 H         1 IN0         0.0615
     47 H7         -9.1303   38.0606   32.1715 H         1 IN0         0.0601
     48 H8        -10.0274   40.3688   32.3206 H         1 IN0         0.0627
     49 H9        -11.9146   44.9555   32.3248 H         1 IN0         0.0876
     50 H10       -13.9168   44.8958   33.9874 H         1 IN0         0.0554
     51 H11       -14.6599   43.7301   32.8403 H         1 IN0         0.0554
     52 H12       -16.3498   44.9527   32.0182 H         1 IN0         0.1876
     53 H13       -15.4732   47.4868   30.6848 H         1 IN0         0.0745
     54 H14       -17.5369   45.4368   29.7345 H         1 IN0         0.0471
     55 H15       -16.0283   45.9562   28.9092 H         1 IN0         0.0471
     56 H16        -9.4572   44.4053   29.2028 H         1 IN0         0.0482
     57 H17        -7.3379   45.2613   30.1489 H         1 IN0         0.0530
     58 H18        -8.3801   43.6400   34.0068 H         1 IN0         0.0525
     59 H19       -10.6824   43.0360   28.5863 H         1 IN0         0.0589
     60 H20       -12.4324   42.6844   28.7878 H         1 IN0         0.0589
     61 H21       -11.9832   39.0425   29.6084 H         1 IN0         0.0236
     62 H22       -13.2061   40.3357   29.3660 H         1 IN0         0.0236
     63 H23       -12.1664   40.3458   30.8308 H         1 IN0         0.0236
     64 H24       -10.4539   41.1809   26.9297 H         1 IN0         0.0236
     65 H25       -12.1998   40.7899   27.0891 H         1 IN0         0.0236
     66 H26       -10.9648   39.5162   27.3707 H         1 IN0         0.0236
     67 H27        -8.9591   41.1770   29.0379 H         1 IN0         0.0236
     68 H28        -9.5475   39.5150   29.3816 H         1 IN0         0.0236
     69 H29        -9.6912   40.7955   30.6332 H         1 IN0         0.0236
@<TRIPOS>BOND
     1    1   35 ar 
     2    1   30 ar 
     3    1    2 1  
     4    2   13 1  
     5    2    3 1  
     6    3   12 ar 
     7    3    4 ar 
     8    4    5 ar 
     9    5    6 ar 
    10    6    7 ar 
    11    7   12 ar 
    12    7    8 ar 
    13    8    9 ar 
    14    9   10 ar 
    15   10   11 ar 
    16   11   12 ar 
    17   13   14 1  
    18   14   27 1  
    19   14   15 1  
    20   15   16 1  
    21   16   18 am 
    22   16   17 2  
    23   18   19 1  
    24   19   24 1  
    25   19   20 1  
    26   20   21 1  
    27   21   23 ar 
    28   21   22 ar 
    29   24   26 ar 
    30   24   25 ar 
    31   27   29 am 
    32   27   28 2  
    33   29   36 1  
    34   29   30 1  
    35   30   31 ar 
    36   31   32 ar 
    37   32   33 ar 
    38   33   35 ar 
    39   33   34 1  
    40   36   37 1  
    41   37   40 1  
    42   37   39 1  
    43   37   38 1  
    44    2   41 1  
    45    4   42 1  
    46    5   43 1  
    47    6   44 1  
    48    8   45 1  
    49    9   46 1  
    50   10   47 1  
    51   11   48 1  
    52   14   49 1  
    53   15   50 1  
    54   15   51 1  
    55   18   52 1  
    56   19   53 1  
    57   20   54 1  
    58   20   55 1  
    59   31   56 1  
    60   32   57 1  
    61   35   58 1  
    62   36   59 1  
    63   36   60 1  
    64   38   61 1  
    65   38   62 1  
    66   38   63 1  
    67   39   64 1  
    68   39   65 1  
    69   39   66 1  
    70   40   67 1  
    71   40   68 1  
    72   40   69 1  
@<TRIPOS>SUBSTRUCTURE
     1 IN0         1

