### 
### Created by X-TOOL on Mon Sep 10 21:12:47 2018
### 

@<TRIPOS>MOLECULE
1ezq_ligand
   66    68     1     0     0
SMALL
GAST_HUCK


@<TRIPOS>ATOM
      1 C1          7.2260    0.1870   17.7590 C.ar      1 RPR        -0.0469
      2 C2          7.9430    0.8410   18.7920 C.ar      1 RPR        -0.0220
      3 C3          9.3330    0.5830   18.8920 C.ar      1 RPR        -0.0599
      4 C4          9.9990   -0.2930   17.9980 C.ar      1 RPR        -0.0669
      5 C5          9.2750   -0.9420   16.9700 C.ar      1 RPR        -0.0546
      6 C6          7.8800   -0.7010   16.8480 C.ar      1 RPR         0.0023
      7 C7          7.1360    3.9720   20.9030 C.ar      1 RPR        -0.0418
      8 C8          5.9420    3.5980   21.5860 C.ar      1 RPR         0.0493
      9 C9          5.4120    2.2940   21.3340 C.ar      1 RPR        -0.0418
     10 C10         6.0620    1.4080   20.4320 C.ar      1 RPR        -0.0490
     11 C11         7.2490    1.7840   19.7550 C.ar      1 RPR        -0.0157
     12 C12         7.7700    3.0800   20.0090 C.ar      1 RPR        -0.0490
     13 C13         5.2730    4.5350   22.5310 C.2       1 RPR         0.2048
     14 N14         5.4850    5.8740   22.2930 N.am      1 RPR        -0.2807
     15 C15         4.9130    6.9410   23.1240 C.3       1 RPR         0.0612
     16 C16         4.4460    8.0750   22.1970 C.3       1 RPR        -0.0394
     17 C17         5.9910    7.4100   24.1730 C.3       1 RPR         0.0920
     18 C18         5.3710    8.5300   25.0530 C.2       1 RPR         0.2408
     19 O19         4.1050    8.1520   25.5930 O.3       1 RPR        -0.2798
     20 C20         7.2930    7.9220   23.4540 C.3       1 RPR         0.0041
     21 C21         7.0910   -1.3800   15.7640 C.3       1 RPR        -0.0015
     22 N22         6.7260   -0.4380   14.7000 N.4       1 RPR         0.2308
     23 C23         8.8140    7.3760   25.4750 C.ar      1 RPR        -0.0549
     24 C24         9.9870    7.6130   26.2340 C.ar      1 RPR         0.0192
     25 C25        10.8930    8.6260   25.8190 C.ar      1 RPR        -0.0635
     26 C26        10.6260    9.3840   24.6630 C.ar      1 RPR        -0.0686
     27 C27         9.4580    9.1410   23.9140 C.ar      1 RPR        -0.0602
     28 C28         8.5360    8.1360   24.3060 C.ar      1 RPR        -0.0404
     29 C29        10.2690    6.8280   27.4410 C.cat     1 RPR         0.2340
     30 N30        11.5370    6.6570   27.8650 N.pl3     1 RPR        -0.2722
     31 N31         9.2640    6.2760   28.1360 N.pl3     1 RPR        -0.2722
     32 O32         5.8330    9.6280   25.1930 O.2       1 RPR        -0.3699
     33 O33         4.5770    4.1470   23.4760 O.2       1 RPR        -0.3850
     34 C34         3.3210    9.1160   26.3120 C.3       1 RPR         0.0658
     35 H1          6.1613    0.3632   17.6573 H         1 RPR         0.0567
     36 H2          9.9036    1.0696   19.6748 H         1 RPR         0.0572
     37 H3         11.0641   -0.4658   18.1021 H         1 RPR         0.0602
     38 H4          9.7780   -1.6143   16.2844 H         1 RPR         0.0565
     39 H5          7.5634    4.9538   21.0717 H         1 RPR         0.0668
     40 H6          4.5049    1.9777   21.8361 H         1 RPR         0.0668
     41 H7          5.6410    0.4243   20.2584 H         1 RPR         0.0633
     42 H8          8.6769    3.3931   19.5045 H         1 RPR         0.0633
     43 H9          6.0573    6.1332   21.5150 H         1 RPR         0.1849
     44 H10         4.0411    6.5518   23.6702 H         1 RPR         0.0583
     45 H11         4.0131    8.8867   22.8001 H         1 RPR         0.0253
     46 H12         3.6862    7.6902   21.5009 H         1 RPR         0.0253
     47 H13         5.3045    8.4596   21.6268 H         1 RPR         0.0253
     48 H14         6.2589    6.5578   24.8148 H         1 RPR         0.0599
     49 H15         7.0497    8.8848   22.9809 H         1 RPR         0.0455
     50 H16         7.5500    7.1865   22.6775 H         1 RPR         0.0455
     51 H17         6.1731   -1.8017   16.1995 H         1 RPR         0.0979
     52 H18         7.6979   -2.1898   15.3328 H         1 RPR         0.0979
     53 H19         6.1991   -0.9214   13.9895 H         1 RPR         0.2008
     54 H20         7.5627   -0.0506   14.2926 H         1 RPR         0.2008
     55 H21         6.1654    0.3051   15.0868 H         1 RPR         0.2008
     56 H22         8.1197    6.6053   25.7898 H         1 RPR         0.0556
     57 H23        11.7921    8.8157   26.3940 H         1 RPR         0.0559
     58 H24        11.3199   10.1554   24.3490 H         1 RPR         0.0599
     59 H25         9.2607    9.7300   23.0256 H         1 RPR         0.0557
     60 H26        11.7262    6.1044   28.7134 H         1 RPR         0.3181
     61 H27        12.3167    7.0789   27.3406 H         1 RPR         0.3181
     62 H28         8.2911    6.4001   27.8213 H         1 RPR         0.3181
     63 H29         9.4648    5.7278   28.9846 H         1 RPR         0.3181
     64 H30         2.3849    8.6480   26.6508 H         1 RPR         0.0577
     65 H31         3.0886    9.9651   25.6524 H         1 RPR         0.0577
     66 H32         3.8886    9.4735   27.1838 H         1 RPR         0.0577
@<TRIPOS>BOND
     1    1    6 ar 
     2    1    2 ar 
     3    2   11 1  
     4    2    3 ar 
     5    3    4 ar 
     6    4    5 ar 
     7    5    6 ar 
     8    6   21 1  
     9   21   22 1  
    10   11   12 ar 
    11   11   10 ar 
    12   10    9 ar 
    13    9    8 ar 
    14    8   13 1  
    15    8    7 ar 
    16    7   12 ar 
    17   13   33 2  
    18   13   14 am 
    19   14   15 1  
    20   15   17 1  
    21   15   16 1  
    22   17   20 1  
    23   17   18 1  
    24   18   32 2  
    25   18   19 1  
    26   19   34 1  
    27   20   28 1  
    28   28   27 ar 
    29   28   23 ar 
    30   23   24 ar 
    31   24   29 1  
    32   24   25 ar 
    33   25   26 ar 
    34   26   27 ar 
    35   29   31 ar 
    36   29   30 ar 
    37    1   35 1  
    38    3   36 1  
    39    4   37 1  
    40    5   38 1  
    41    7   39 1  
    42    9   40 1  
    43   10   41 1  
    44   12   42 1  
    45   14   43 1  
    46   15   44 1  
    47   16   45 1  
    48   16   46 1  
    49   16   47 1  
    50   17   48 1  
    51   20   49 1  
    52   20   50 1  
    53   21   51 1  
    54   21   52 1  
    55   22   53 1  
    56   22   54 1  
    57   22   55 1  
    58   23   56 1  
    59   25   57 1  
    60   26   58 1  
    61   27   59 1  
    62   30   60 1  
    63   30   61 1  
    64   31   62 1  
    65   31   63 1  
    66   34   64 1  
    67   34   65 1  
    68   34   66 1  
@<TRIPOS>SUBSTRUCTURE
     1 RPR         1

