### 
### Created by X-TOOL on Mon Sep 10 21:12:48 2018
### 

@<TRIPOS>MOLECULE
1f0q_ligand
   30    32     1     0     0
SMALL
GAST_HUCK


@<TRIPOS>ATOM
      1 C1         44.4380    8.6260    2.8160 C.ar      1 EMO         0.1040
      2 O1         45.2150    9.7220    2.4500 O.3       1 EMO        -0.3292
      3 C2         44.1340    7.7130    1.7570 C.ar      1 EMO         0.0054
      4 C3         43.3440    6.5560    2.0280 C.ar      1 EMO         0.0903
      5 O3         43.0370    5.6540    1.0140 O.3       1 EMO        -0.3313
      6 C4         42.8410    6.2870    3.3480 C.ar      1 EMO        -0.0198
      7 C5         43.1290    7.1810    4.4340 C.ar      1 EMO         0.0354
      8 C6         42.5980    6.8860    5.8540 C.2       1 EMO         0.1600
      9 O6         41.9180    5.8870    6.0690 O.2       1 EMO        -0.3614
     10 C7         42.9280    7.8720    7.0010 C.ar      1 EMO         0.0369
     11 C8         42.4560    7.6230    8.3570 C.ar      1 EMO        -0.0475
     12 C9         42.7810    8.5510    9.4250 C.ar      1 EMO        -0.0442
     13 C10        42.3340    8.3970   10.8460 C.3       1 EMO        -0.0304
     14 C16        43.5810    9.7040    9.1550 C.ar      1 EMO        -0.0217
     15 C17        44.0450    9.9480    7.8270 C.ar      1 EMO         0.1058
     16 O17        44.8310   11.1160    7.6330 O.3       1 EMO        -0.3282
     17 C18        43.7500    9.0500    6.7400 C.ar      1 EMO         0.0689
     18 C19        44.2690    9.3490    5.3210 C.2       1 EMO         0.1440
     19 O19        44.9520   10.3400    5.0970 O.2       1 EMO        -0.3839
     20 C20        43.9400    8.3710    4.1730 C.ar      1 EMO         0.0655
     21 H1         45.3659   10.2701    3.2111 H         1 EMO         0.2508
     22 H2         44.5018    7.8992    0.7544 H         1 EMO         0.0512
     23 H3         42.5532    6.1013    0.3296 H         1 EMO         0.2498
     24 H4         42.2398    5.4025    3.5245 H         1 EMO         0.0525
     25 H5         41.8605    6.7423    8.5688 H         1 EMO         0.0536
     26 H6         42.7183    9.2363   11.4443 H         1 EMO         0.0399
     27 H7         42.7206    7.4504   11.2515 H         1 EMO         0.0399
     28 H8         41.2348    8.3913   10.8861 H         1 EMO         0.0399
     29 H9         43.8344   10.3903    9.9549 H         1 EMO         0.0528
     30 H10        45.0833   11.1784    6.7192 H         1 EMO         0.2509
@<TRIPOS>BOND
     1    1    2 1  
     2    1    3 ar 
     3    1   20 ar 
     4    3    4 ar 
     5    4    5 1  
     6    4    6 ar 
     7    6    7 ar 
     8    7    8 1  
     9    7   20 ar 
    10    8    9 2  
    11    8   10 1  
    12   10   11 ar 
    13   10   17 ar 
    14   11   12 ar 
    15   12   13 1  
    16   12   14 ar 
    17   14   15 ar 
    18   15   16 1  
    19   15   17 ar 
    20   17   18 1  
    21   18   19 2  
    22   18   20 1  
    23    2   21 1  
    24    3   22 1  
    25    5   23 1  
    26    6   24 1  
    27   11   25 1  
    28   13   26 1  
    29   13   27 1  
    30   13   28 1  
    31   14   29 1  
    32   16   30 1  
@<TRIPOS>SUBSTRUCTURE
     1 EMO         1

