### 
### Created by X-TOOL on Mon Sep 10 21:12:47 2018
### 

@<TRIPOS>MOLECULE
1f0s_ligand
   46    50     1     0     0
SMALL
GAST_HUCK


@<TRIPOS>ATOM
      1 C16         7.6060    1.0940   19.3540 C.ar      1 PR2         0.0662
      2 C17         8.9380    0.8560   18.9180 C.ar      1 PR2        -0.0307
      3 C18         9.1560    0.3320   17.6010 C.ar      1 PR2        -0.0429
      4 C19         8.0090    0.0760   16.7810 C.ar      1 PR2        -0.0021
      5 N20         6.7310    0.3140   17.2280 N.ar      1 PR2        -0.3094
      6 C21         6.5230    0.8210   18.5140 C.ar      1 PR2         0.0437
      7 C25         5.2240    1.0830   19.0410 C.2       1 PR2        -0.0157
      8 C26         5.4170    1.5850   20.3580 C.2       1 PR2         0.1743
      9 S27         7.0600    1.6950   20.8240 S.3       1 PR2         0.0039
     10 N28         5.4360    6.6890   22.3610 N.am      1 PR2        -0.2553
     11 C29         4.8530    5.5240   22.7290 C.2       1 PR2         0.2026
     12 C30         5.1980    4.5040   21.6700 C.3       1 PR2         0.1287
     13 C31         5.6910    5.3290   20.4780 C.3       1 PR2         0.0048
     14 C32         6.1760    6.6130   21.1040 C.3       1 PR2         0.0405
     15 N37         4.0380    3.7310   21.2460 N.am      1 PR2        -0.2231
     16 S38         4.0940    2.1000   21.3290 S.o2      1 PR2         0.0861
     17 O39         2.8170    1.7980   20.7620 O.2       1 PR2        -0.1474
     18 O40         4.3660    1.8090   22.7100 O.2       1 PR2        -0.1474
     19 O41         4.1840    5.3260   23.7370 O.2       1 PR2        -0.3946
     20 C1          5.3970    7.9560   23.0940 C.3       1 PR2         0.0948
     21 C5          8.2870    7.7370   25.3130 C.ar      1 PR2         0.0857
     22 C2          8.8340    8.6580   24.3270 C.ar      1 PR2        -0.0204
     23 C3         10.1640    9.1550   24.4650 C.ar      1 PR2        -0.0559
     24 C4         10.9160    8.7110   25.5940 C.ar      1 PR2        -0.0154
     25 N5         10.3610    7.8440   26.4980 N.ar      1 PR2        -0.3227
     26 C6          9.1030    7.3430   26.4150 C.ar      1 PR2         0.0225
     27 C27         7.8360    8.8770   23.3640 C.2       1 PR2        -0.0546
     28 C28         6.7390    8.0990   23.7830 C.2       1 PR2         0.0715
     29 N29         7.0010    7.4330   24.9230 N.pl3     1 PR2        -0.2628
     30 H1          9.7766    1.0675   19.5715 H         1 PR2         0.0695
     31 H2         10.1579    0.1355   17.2369 H         1 PR2         0.0648
     32 H3          8.1531   -0.3161   15.7807 H         1 PR2         0.0774
     33 H4          4.2720    0.9291   18.5350 H         1 PR2         0.0465
     34 H5          5.9824    3.8244   22.0345 H         1 PR2         0.0754
     35 H6          4.8716    5.5233   19.7704 H         1 PR2         0.0328
     36 H7          6.5110    4.8132   19.9569 H         1 PR2         0.0328
     37 H8          7.2596    6.5739   21.2889 H         1 PR2         0.0526
     38 H9          5.9447    7.4745   20.4604 H         1 PR2         0.0526
     39 H10         3.2178    4.1928   20.9084 H         1 PR2         0.1708
     40 H11         4.5879    7.9388   23.8390 H         1 PR2         0.0746
     41 H12         5.2368    8.7925   22.3979 H         1 PR2         0.0746
     42 H13        10.5867    9.8425   23.7413 H         1 PR2         0.0594
     43 H14        11.9317    9.0617   25.7369 H         1 PR2         0.0677
     44 H15         8.7269    6.6598   27.1678 H         1 PR2         0.0746
     45 H16         7.8970    9.5125   22.4817 H         1 PR2         0.0196
     46 H17         6.3522    6.8047   25.4182 H         1 PR2         0.2294
@<TRIPOS>BOND
     1    1    9 1  
     2    1    6 ar 
     3    1    2 ar 
     4    2    3 ar 
     5    3    4 ar 
     6    4    5 ar 
     7    5    6 ar 
     8    6    7 1  
     9    7    8 2  
    10    8   16 1  
    11    8    9 1  
    12   16   18 2  
    13   16   17 2  
    14   16   15 am 
    15   15   12 1  
    16   12   13 1  
    17   12   11 1  
    18   11   19 2  
    19   11   10 am 
    20   10   20 1  
    21   10   14 1  
    22   14   13 1  
    23   20   28 1  
    24   28   29 1  
    25   28   27 2  
    26   27   22 1  
    27   22   23 ar 
    28   22   21 ar 
    29   21   29 1  
    30   21   26 ar 
    31   26   25 ar 
    32   25   24 ar 
    33   24   23 ar 
    34    2   30 1  
    35    3   31 1  
    36    4   32 1  
    37    7   33 1  
    38   12   34 1  
    39   13   35 1  
    40   13   36 1  
    41   14   37 1  
    42   14   38 1  
    43   15   39 1  
    44   20   40 1  
    45   20   41 1  
    46   23   42 1  
    47   24   43 1  
    48   26   44 1  
    49   27   45 1  
    50   29   46 1  
@<TRIPOS>SUBSTRUCTURE
     1 PR2         1

