### 
### Created by X-TOOL on Mon Sep 10 21:12:47 2018
### 

@<TRIPOS>MOLECULE
1f0t_ligand
   50    53     1     0     0
SMALL
GAST_HUCK


@<TRIPOS>ATOM
      1 C1         13.7720   -3.4110   25.0880 C.ar      1 PR1        -0.0724
      2 C2         14.1560   -3.5440   23.7510 C.ar      1 PR1        -0.0398
      3 C3         13.3000   -4.1340   22.8220 C.ar      1 PR1         0.0912
      4 C4         12.0440   -4.6010   23.2210 C.ar      1 PR1         0.0083
      5 C5         11.6700   -4.4620   24.5630 C.ar      1 PR1        -0.0617
      6 C6         12.5100   -3.8680   25.5270 C.ar      1 PR1         0.0078
      7 C10        12.0420   -3.6980   27.0270 C.cat     1 PR1         0.2278
      8 N11        10.7640   -3.9510   27.3770 N.pl3     1 PR1        -0.2734
      9 N12        12.9090   -3.2960   27.9690 N.pl3     1 PR1        -0.2734
     10 C13        11.0480   -5.2790   22.2250 C.3       1 PR1         0.0658
     11 O44        13.6830   -4.2570   21.5510 O.3       1 PR1        -0.3368
     12 C16        12.8720  -13.0390   24.1350 C.ar      1 PR1         0.0662
     13 C17        13.8970  -13.4940   24.9520 C.ar      1 PR1        -0.0307
     14 C18        15.0640  -14.0690   24.4210 C.ar      1 PR1        -0.0429
     15 C19        15.2430  -14.2110   23.0270 C.ar      1 PR1        -0.0021
     16 N20        14.2890  -13.7930   22.1540 N.ar      1 PR1        -0.3094
     17 C21        13.0650  -13.1940   22.6230 C.ar      1 PR1         0.0437
     18 C25        11.9690  -12.6880   21.9200 C.2       1 PR1        -0.0157
     19 C26        10.9670  -12.1590   22.8150 C.2       1 PR1         0.1743
     20 S27        11.3720  -12.2880   24.4850 S.3       1 PR1         0.0039
     21 N28        11.0900   -6.7510   22.2170 N.am      1 PR1        -0.2620
     22 C29        10.0010   -7.5520   22.3190 C.2       1 PR1         0.2019
     23 C30        10.4840   -8.9760   22.3110 C.3       1 PR1         0.1286
     24 C31        11.7780   -8.8860   21.5170 C.3       1 PR1         0.0047
     25 C32        12.3140   -7.5010   21.8510 C.3       1 PR1         0.0397
     26 N37         9.8950  -10.0120   21.5570 N.am      1 PR1        -0.2231
     27 S38         9.4800  -11.4170   22.2470 S.o2      1 PR1         0.0861
     28 O39         8.6800  -11.0280   23.3660 O.2       1 PR1        -0.1474
     29 O40         8.9380  -12.1760   21.1670 O.2       1 PR1        -0.1474
     30 O41         8.8430   -7.1990   22.3950 O.2       1 PR1        -0.3946
     31 H1         14.4512   -2.9514   25.7969 H         1 PR1         0.0531
     32 H2         15.1283   -3.1852   23.4332 H         1 PR1         0.0521
     33 H3         10.6968   -4.8252   24.8729 H         1 PR1         0.0526
     34 H4         10.4663   -3.8380   28.3565 H         1 PR1         0.3180
     35 H5         10.0859   -4.2572   26.6647 H         1 PR1         0.3180
     36 H6         13.8881   -3.0989   27.7173 H         1 PR1         0.3180
     37 H7         12.5953   -3.1845   28.9437 H         1 PR1         0.3180
     38 H8         11.2835   -4.9243   21.2107 H         1 PR1         0.0662
     39 H9         10.0283   -4.9671   22.4950 H         1 PR1         0.0662
     40 H10        14.4707   -4.7863   21.5086 H         1 PR1         0.2456
     41 H11        13.7949  -13.4036   26.0274 H         1 PR1         0.0695
     42 H12        15.8421  -14.4103   25.0942 H         1 PR1         0.0648
     43 H13        16.1542  -14.6597   22.6482 H         1 PR1         0.0774
     44 H14        11.8814  -12.6920   20.8345 H         1 PR1         0.0465
     45 H15        10.6136   -9.3066   23.3521 H         1 PR1         0.0754
     46 H16        11.5834   -8.9811   20.4386 H         1 PR1         0.0328
     47 H17        12.4861   -9.6666   21.8321 H         1 PR1         0.0328
     48 H18        13.0194   -7.5425   22.6940 H         1 PR1         0.0526
     49 H19        12.8099   -7.0481   20.9798 H         1 PR1         0.0526
     50 H20         9.7309   -9.8767   20.5799 H         1 PR1         0.1708
@<TRIPOS>BOND
     1    6    1 ar 
     2    1    2 ar 
     3    2    3 ar 
     4    3   11 1  
     5    3    4 ar 
     6    4   10 1  
     7    4    5 ar 
     8    6    5 ar 
     9    6    7 1  
    10    7    9 ar 
    11    7    8 ar 
    12   10   21 1  
    13   21   25 1  
    14   21   22 am 
    15   22   30 2  
    16   22   23 1  
    17   23   26 1  
    18   23   24 1  
    19   24   25 1  
    20   26   27 am 
    21   27   29 2  
    22   27   28 2  
    23   27   19 1  
    24   19   20 1  
    25   19   18 2  
    26   18   17 1  
    27   17   16 ar 
    28   17   12 ar 
    29   12   20 1  
    30   12   13 ar 
    31   13   14 ar 
    32   14   15 ar 
    33   15   16 ar 
    34    1   31 1  
    35    2   32 1  
    36    5   33 1  
    37    8   34 1  
    38    8   35 1  
    39    9   36 1  
    40    9   37 1  
    41   10   38 1  
    42   10   39 1  
    43   11   40 1  
    44   13   41 1  
    45   14   42 1  
    46   15   43 1  
    47   18   44 1  
    48   23   45 1  
    49   24   46 1  
    50   24   47 1  
    51   25   48 1  
    52   25   49 1  
    53   26   50 1  
@<TRIPOS>SUBSTRUCTURE
     1 PR1         1

