### 
### Created by X-TOOL on Mon Sep 10 21:12:48 2018
### 

@<TRIPOS>MOLECULE
1f1j_ligand
   64    63     1     0     0
SMALL
GAST_HUCK


@<TRIPOS>ATOM
      1 C          29.7510   29.8600   -0.6500 C.2       1 ACE         0.1752
      2 O          28.5520   30.1000   -0.8120 O.2       1 ACE        -0.3972
      3 CH3        30.8010   30.1830   -1.6750 C.3       1 ACE         0.0258
      4 N          30.2520   29.3080    0.4270 N.am      1 ASP        -0.2643
      5 CA         31.5580   28.6890    0.3630 C.3       1 ASP         0.1422
      6 C          31.6650   27.5780   -0.6680 C.2       1 ASP         0.2056
      7 O          30.7600   26.7830   -0.9370 O.2       1 ASP        -0.3943
      8 CB         32.0620   28.3420    1.7560 C.3       1 ASP         0.0406
      9 CG         32.1440   29.5950    2.6020 C.2       1 ASP         0.0393
     10 OD1        32.3050   30.7050    2.0530 O.co2     1 ASP        -0.5688
     11 OD2        32.0490   29.4840    3.8390 O.co2     1 ASP        -0.5688
     12 N          32.8300   27.5370   -1.2740 N.am      1 GLU        -0.2635
     13 CA         33.1430   26.5350   -2.2780 C.3       1 GLU         0.1325
     14 C          34.2820   25.6360   -1.6960 C.2       1 GLU         0.2040
     15 O          35.0960   26.0720   -0.8840 O.2       1 GLU        -0.3944
     16 CB         33.6810   27.3120   -3.4770 C.3       1 GLU        -0.0008
     17 CG         33.0570   27.1020   -4.8490 C.3       1 GLU         0.0044
     18 CD         32.7410   28.4830   -5.4060 C.2       1 GLU         0.0350
     19 OE1        33.6530   29.1470   -5.9490 O.co2     1 GLU        -0.5690
     20 OE2        31.5750   28.9170   -5.2670 O.co2     1 GLU        -0.5690
     21 N          34.3950   24.3700   -2.0530 N.am      1 VAL        -0.2635
     22 CA         35.6260   23.6440   -1.6850 C.3       1 VAL         0.1331
     23 C          36.6550   23.3970   -2.8980 C.2       1 VAL         0.2023
     24 O          36.2320   23.4330   -4.0490 O.2       1 VAL        -0.3945
     25 CB         35.1880   22.3330   -1.0180 C.3       1 VAL        -0.0063
     26 CG1        34.0570   22.4640   -0.0080 C.3       1 VAL        -0.0584
     27 CG2        34.8010   21.2730   -2.0310 C.3       1 VAL        -0.0584
     28 N          37.9550   23.1170   -2.6710 N.am      1 ASJ        -0.2781
     29 CA         38.9890   22.9510   -3.7080 C.3       1 ASJ         0.0764
     30 C          39.2120   21.4880   -3.9690 C.3       1 ASJ         0.0687
     31 O          40.2750   21.1000   -4.8400 O.3       1 ASJ        -0.3926
     32 CB         40.3560   23.6120   -3.4290 C.3       1 ASJ         0.0254
     33 CG         40.2260   25.0930   -3.7120 C.2       1 ASJ         0.0371
     34 OD1        41.0410   25.8780   -3.1940 O.co2     1 ASJ        -0.5689
     35 OD2        39.3020   25.4820   -4.4580 O.co2     1 ASJ        -0.5689
     36 H1         31.7876   29.8746   -1.2989 H         1 ACE         0.0467
     37 H2         30.8043   31.2659   -1.8679 H         1 ACE         0.0467
     38 H3         30.5799   29.6449   -2.6086 H         1 ACE         0.0467
     39 H4         29.7372   29.3144    1.2843 H         1 ASP         0.1884
     40 H5         32.2375   29.4730   -0.0026 H         1 ASP         0.0819
     41 H6         33.0608   27.8876    1.6797 H         1 ASP         0.0478
     42 H7         31.3697   27.6287    2.2271 H         1 ASP         0.0478
     43 H8         33.5234   28.2173   -1.0365 H         1 GLU         0.1883
     44 H9         32.2617   25.9349   -2.5483 H         1 GLU         0.0801
     45 H10        34.7477   27.0596   -3.5690 H         1 GLU         0.0330
     46 H11        33.5763   28.3807   -3.2385 H         1 GLU         0.0330
     47 H12        32.1342   26.5102   -4.7585 H         1 GLU         0.0433
     48 H13        33.7640   26.5799   -5.5104 H         1 GLU         0.0433
     49 H14        33.6640   23.9140   -2.5606 H         1 VAL         0.1883
     50 H15        36.1597   24.2488   -0.9371 H         1 VAL         0.0802
     51 H16        36.0657   21.9612   -0.4690 H         1 VAL         0.0343
     52 H17        33.8211   21.4737    0.4088 H         1 VAL         0.0234
     53 H18        33.1660   22.8738   -0.5063 H         1 VAL         0.0234
     54 H19        34.3664   23.1391    0.8035 H         1 VAL         0.0234
     55 H20        35.6066   21.1623   -2.7718 H         1 VAL         0.0234
     56 H21        33.8735   21.5737   -2.5402 H         1 VAL         0.0234
     57 H22        34.6423   20.3141   -1.5159 H         1 VAL         0.0234
     58 H23        38.2413   23.0133   -1.7185 H         1 ASJ         0.1857
     59 H24        38.5929   23.4095   -4.6261 H         1 ASJ         0.0597
     60 H25        38.2806   21.0902   -4.3982 H         1 ASJ         0.0581
     61 H26        39.4005   21.0108   -2.9960 H         1 ASJ         0.0581
     62 H27        40.1332   21.4793   -5.6994 H         1 ASJ         0.2095
     63 H28        41.1234   23.1729   -4.0834 H         1 ASJ         0.0454
     64 H29        40.6382   23.4564   -2.3773 H         1 ASJ         0.0454
@<TRIPOS>BOND
     1    1    2 2  
     2    1    3 1  
     3    1    4 am 
     4    4    5 1  
     5    5    6 1  
     6    5    8 1  
     7    6    7 2  
     8    6   12 am 
     9    8    9 1  
    10    9   10 ar 
    11    9   11 ar 
    12   12   13 1  
    13   13   14 1  
    14   13   16 1  
    15   14   15 2  
    16   14   21 am 
    17   16   17 1  
    18   17   18 1  
    19   18   19 ar 
    20   18   20 ar 
    21   21   22 1  
    22   22   23 1  
    23   22   25 1  
    24   23   24 2  
    25   23   28 am 
    26   25   26 1  
    27   25   27 1  
    28   28   29 1  
    29   29   30 1  
    30   29   32 1  
    31   30   31 1  
    32   32   33 1  
    33   33   34 ar 
    34   33   35 ar 
    35    3   36 1  
    36    3   37 1  
    37    3   38 1  
    38    4   39 1  
    39    5   40 1  
    40    8   41 1  
    41    8   42 1  
    42   12   43 1  
    43   13   44 1  
    44   16   45 1  
    45   16   46 1  
    46   17   47 1  
    47   17   48 1  
    48   21   49 1  
    49   22   50 1  
    50   25   51 1  
    51   26   52 1  
    52   26   53 1  
    53   26   54 1  
    54   27   55 1  
    55   27   56 1  
    56   27   57 1  
    57   28   58 1  
    58   29   59 1  
    59   30   60 1  
    60   30   61 1  
    61   31   62 1  
    62   32   63 1  
    63   32   64 1  
@<TRIPOS>SUBSTRUCTURE
     1 ACE         1

