### 
### Created by X-TOOL on Mon Sep 10 21:12:48 2018
### 

@<TRIPOS>MOLECULE
1f28_ligand
   59    63     1     0     0
SMALL
GAST_HUCK


@<TRIPOS>ATOM
      1 C1          0.3970  -14.1130   24.4100 C.2       1 F89         0.2281
      2 O1A         1.0510  -14.2760   25.4420 O.2       1 F89        -0.3939
      3 N2         -0.8650  -13.5540   24.5860 N.am      1 F89        -0.1950
      4 C3         -1.7460  -13.2970   23.5590 C.2       1 F89         0.1420
      5 C3M        -3.0930  -12.6900   23.8250 C.3       1 F89         0.0277
      6 N4         -1.3580  -13.6110   22.2720 N.2       1 F89        -0.3050
      7 C4A        -0.1270  -14.1720   21.9690 C.ar      1 F89         0.0129
      8 C5          0.1620  -14.4590   20.5660 C.ar      1 F89        -0.0497
      9 C6          1.4270  -15.0550   20.1700 C.ar      1 F89        -0.0552
     10 C6A         2.4350  -15.3620   21.1760 C.ar      1 F89        -0.0226
     11 C7          3.6860  -15.9530   20.7380 C.ar      1 F89        -0.0587
     12 C8          4.7080  -16.2820   21.7100 C.ar      1 F89        -0.0569
     13 C9          4.5020  -16.0220   23.1450 C.ar      1 F89        -0.0231
     14 C10         3.2550  -15.4310   23.6040 C.ar      1 F89        -0.0555
     15 C1B         2.1780  -15.0780   22.6550 C.ar      1 F89        -0.0179
     16 C1A         0.8680  -14.4710   23.0510 C.ar      1 F89         0.0587
     17 C11         5.5550  -16.3760   24.1510 C.3       1 F89         0.0586
     18 N12         6.1880  -17.7040   23.8980 N.pl3     1 F89        -0.3098
     19 C13         5.5940  -19.0330   24.1660 C.ar      1 F89         0.0381
     20 C14         4.2400  -19.2060   24.7600 C.ar      1 F89        -0.0352
     21 C15         3.7290  -20.5470   24.9800 C.ar      1 F89        -0.0119
     22 C16         4.4940  -21.7080   24.6340 C.ar      1 F89         0.0401
     23 C17         5.8400  -21.5620   24.0430 C.ar      1 F89        -0.0594
     24 C18         6.3840  -20.2160   23.8140 C.ar      1 F89        -0.0448
     25 C19         2.4470  -20.9720   25.5470 C.3       1 F89         0.0693
     26 C           3.7260  -22.9080   24.9600 C.2       1 F89         0.1968
     27 O           3.8720  -24.0070   24.4090 O.2       1 F89        -0.3941
     28 N           2.5380  -22.4470   25.4950 N.am      1 F89        -0.2474
     29 CA          1.1800  -23.0730   25.8130 C.3       1 F89         0.0998
     30 CT          1.1650  -23.8410   27.1880 C.2       1 F89         0.0605
     31 O1          2.0120  -24.7230   27.3980 O.co2     1 F89        -0.5666
     32 O2          0.3610  -23.5160   28.0800 O.co2     1 F89        -0.5666
     33 CB          0.5810  -23.9540   24.6510 C.3       1 F89        -0.0061
     34 CG          0.2920  -23.2340   23.3210 C.3       1 F89         0.0038
     35 CD         -1.1280  -22.6250   23.1820 C.2       1 F89         0.0350
     36 OE1        -1.4420  -21.6790   23.9250 O.co2     1 F89        -0.5690
     37 OE2        -1.8140  -22.8880   22.1870 O.co2     1 F89        -0.5690
     38 H1         -1.1502  -13.3244   25.5166 H         1 F89         0.2544
     39 H2         -3.6347  -12.5691   22.8753 H         1 F89         0.0531
     40 H3         -2.9646  -11.7069   24.3015 H         1 F89         0.0531
     41 H4         -3.6668  -13.3492   24.4930 H         1 F89         0.0531
     42 H5         -0.5778  -14.2240   19.8094 H         1 F89         0.0576
     43 H6          1.6206  -15.2712   19.1256 H         1 F89         0.0658
     44 H7          3.8552  -16.1479   19.6852 H         1 F89         0.0621
     45 H8          5.6387  -16.7264   21.3763 H         1 F89         0.0561
     46 H9          3.1125  -15.2458   24.6625 H         1 F89         0.0506
     47 H10         5.0930  -16.3936   25.1491 H         1 F89         0.0682
     48 H11         6.3385  -15.6044   24.1231 H         1 F89         0.0682
     49 H12         7.1360  -17.6945   23.4954 H         1 F89         0.1800
     50 H13         3.6427  -18.3411   25.0251 H         1 F89         0.0464
     51 H14         6.4207  -22.4390   23.7808 H         1 F89         0.0620
     52 H15         7.3719  -20.0981   23.3837 H         1 F89         0.0477
     53 H16         1.6050  -20.6055   24.9414 H         1 F89         0.0698
     54 H17         2.3351  -20.6183   26.5826 H         1 F89         0.0698
     55 H18         0.4879  -22.2262   25.9314 H         1 F89         0.0730
     56 H19        -0.3657  -24.3831   25.0111 H         1 F89         0.0323
     57 H20         1.2955  -24.7643   24.4438 H         1 F89         0.0323
     58 H21         0.4297  -23.9602   22.5064 H         1 F89         0.0432
     59 H22         1.0219  -22.4183   23.2124 H         1 F89         0.0432
@<TRIPOS>BOND
     1    1    2 2  
     2    1    3 am 
     3    1   16 1  
     4    3    4 am 
     5    4    5 1  
     6    4    6 2  
     7    6    7 1  
     8    7    8 ar 
     9    7   16 ar 
    10    8    9 ar 
    11    9   10 ar 
    12   10   11 ar 
    13   10   15 ar 
    14   11   12 ar 
    15   12   13 ar 
    16   13   14 ar 
    17   13   17 1  
    18   14   15 ar 
    19   15   16 ar 
    20   17   18 1  
    21   18   19 1  
    22   19   20 ar 
    23   19   24 ar 
    24   20   21 ar 
    25   21   22 ar 
    26   21   25 1  
    27   22   23 ar 
    28   22   26 1  
    29   23   24 ar 
    30   25   28 1  
    31   26   27 2  
    32   26   28 am 
    33   28   29 1  
    34   29   30 1  
    35   29   33 1  
    36   30   31 ar 
    37   30   32 ar 
    38   33   34 1  
    39   34   35 1  
    40   35   36 ar 
    41   35   37 ar 
    42    3   38 1  
    43    5   39 1  
    44    5   40 1  
    45    5   41 1  
    46    8   42 1  
    47    9   43 1  
    48   11   44 1  
    49   12   45 1  
    50   14   46 1  
    51   17   47 1  
    52   17   48 1  
    53   18   49 1  
    54   20   50 1  
    55   23   51 1  
    56   24   52 1  
    57   25   53 1  
    58   25   54 1  
    59   29   55 1  
    60   33   56 1  
    61   33   57 1  
    62   34   58 1  
    63   34   59 1  
@<TRIPOS>SUBSTRUCTURE
     1 F89         1

