### 
### Created by X-TOOL on Mon Sep 10 21:12:48 2018
### 

@<TRIPOS>MOLECULE
1f2o_ligand
   22    21     1     0     0
SMALL
GAST_HUCK


@<TRIPOS>ATOM
      1 N          16.2930   15.9070   52.1230 N.4       1 LEU         0.2327
      2 CA         15.1210   16.7720   51.8040 C.3       1 LEU         0.0286
      3 C          13.8650   15.9750   51.5170 C.2       1 LEU         0.0844
      4 O          12.8080   16.5760   51.6430 O.co2     1 LEU        -0.5643
      5 CB         15.3950   17.6570   50.5750 C.3       1 LEU         0.0047
      6 CG         16.4070   18.7980   50.6320 C.3       1 LEU        -0.0400
      7 CD1        16.3980   19.3950   52.0650 C.3       1 LEU        -0.0624
      8 CD2        17.7920   18.2470   50.2100 C.3       1 LEU        -0.0624
      9 OXT        13.8770   14.7860   51.2110 O.co2     1 LEU        -0.5643
     10 H1         17.0981   16.4857   52.3048 H         1 LEU         0.2010
     11 H2         16.4852   15.2999   51.3416 H         1 LEU         0.2010
     12 H3         16.0881   15.3507   52.9382 H         1 LEU         0.2010
     13 H4         14.9343   17.4192   52.6736 H         1 LEU         0.1024
     14 H5         14.4318   18.1084   50.2949 H         1 LEU         0.0341
     15 H6         15.7307   16.9824   49.7736 H         1 LEU         0.0341
     16 H7         16.1125   19.5857   49.9229 H         1 LEU         0.0298
     17 H8         17.1233   20.2200   52.1230 H         1 LEU         0.0232
     18 H9         16.6724   18.6140   52.7894 H         1 LEU         0.0232
     19 H10        15.3920   19.7741   52.2980 H         1 LEU         0.0232
     20 H11        17.7296   17.8406   49.1897 H         1 LEU         0.0232
     21 H12        18.0965   17.4499   50.9041 H         1 LEU         0.0232
     22 H13        18.5333   19.0592   50.2364 H         1 LEU         0.0232
@<TRIPOS>BOND
     1    2    3 1  
     2    2    5 1  
     3    2    1 1  
     4    5    6 1  
     5    6    8 1  
     6    6    7 1  
     7    3    9 ar 
     8    3    4 ar 
     9    1   10 1  
    10    1   11 1  
    11    1   12 1  
    12    2   13 1  
    13    5   14 1  
    14    5   15 1  
    15    6   16 1  
    16    7   17 1  
    17    7   18 1  
    18    7   19 1  
    19    8   20 1  
    20    8   21 1  
    21    8   22 1  
@<TRIPOS>SUBSTRUCTURE
     1 LEU         1

