### 
### Created by X-TOOL on Mon Sep 10 21:12:48 2018
### 

@<TRIPOS>MOLECULE
1f2p_ligand
   23    23     1     0     0
SMALL
GAST_HUCK


@<TRIPOS>ATOM
      1 N          16.1820   15.9410   52.1520 N.4       1 PHE         0.2341
      2 CA         15.0890   16.9300   51.8910 C.3       1 PHE         0.0378
      3 C          13.7800   16.2360   51.6750 C.2       1 PHE         0.0866
      4 O          13.7260   14.9820   51.6430 O.co2     1 PHE        -0.5641
      5 CB         15.3790   17.7650   50.6390 C.3       1 PHE         0.0361
      6 CG         16.7610   18.2720   50.5890 C.ar      1 PHE        -0.0360
      7 CD1        17.1930   19.2250   51.5010 C.ar      1 PHE        -0.0600
      8 CD2        17.6780   17.7290   49.6830 C.ar      1 PHE        -0.0600
      9 CE1        18.5420   19.6340   51.5150 C.ar      1 PHE        -0.0686
     10 CE2        19.0110   18.1270   49.6930 C.ar      1 PHE        -0.0686
     11 CZ         19.4480   19.0670   50.5950 C.ar      1 PHE        -0.0687
     12 OXT        12.8170   17.0050   51.5210 O.co2     1 PHE        -0.5641
     13 H1         17.0515   16.4308   52.2940 H         1 PHE         0.2012
     14 H2         16.2705   15.3216   51.3617 H         1 PHE         0.2012
     15 H3         15.9601   15.4046   52.9761 H         1 PHE         0.2012
     16 H4         15.0071   17.5982   52.7609 H         1 PHE         0.1048
     17 H5         14.6908   18.6230   50.6234 H         1 PHE         0.0500
     18 H6         15.2039   17.1383   49.7521 H         1 PHE         0.0500
     19 H7         16.4906   19.6563   52.2050 H         1 PHE         0.0557
     20 H8         17.3458   16.9888   48.9641 H         1 PHE         0.0557
     21 H9         18.8801   20.3782   52.2270 H         1 PHE         0.0599
     22 H10        19.7085   17.6933   48.9856 H         1 PHE         0.0599
     23 H11        20.4881   19.3724   50.5994 H         1 PHE         0.0559
@<TRIPOS>BOND
     1    2    3 1  
     2    2    5 1  
     3    2    1 1  
     4    5    6 1  
     5    6    8 ar 
     6    6    7 ar 
     7    7    9 ar 
     8    9   11 ar 
     9   11   10 ar 
    10   10    8 ar 
    11    3   12 ar 
    12    3    4 ar 
    13    1   13 1  
    14    1   14 1  
    15    1   15 1  
    16    2   16 1  
    17    5   17 1  
    18    5   18 1  
    19    7   19 1  
    20    8   20 1  
    21    9   21 1  
    22   10   22 1  
    23   11   23 1  
@<TRIPOS>SUBSTRUCTURE
     1 PHE         1

