### 
### Created by X-TOOL on Mon Sep 10 21:12:48 2018
### 

@<TRIPOS>MOLECULE
1f40_ligand
   54    55     1     0     0
SMALL
GAST_HUCK


@<TRIPOS>ATOM
      1 C2         -3.8610    1.6840   -0.8040 C.3       1 GPI         0.1458
      2 N6         -4.1450    3.1480   -0.4470 N.am      1 GPI        -0.2403
      3 C5         -2.7720    3.8430   -0.5040 C.3       1 GPI         0.0378
      4 C3         -2.4470    1.4110   -0.3280 C.3       1 GPI        -0.0089
      5 C4         -1.7110    2.7370   -0.4470 C.3       1 GPI        -0.0279
      6 C1         -4.8330    0.7670   -0.0420 C.2       1 GPI         0.2599
      7 O1         -4.4610    0.2050    0.9910 O.2       1 GPI        -0.3678
      8 O2         -6.1000    0.5710   -0.5160 O.3       1 GPI        -0.2749
      9 C14        -7.0380    0.5410    0.5660 C.3       1 GPI         0.0788
     10 C15        -8.4530    0.8080    0.0230 C.3       1 GPI        -0.0141
     11 C16        -9.3760   -0.3610    0.4020 C.3       1 GPI        -0.0105
     12 N19       -11.3570    1.2290    3.2950 N.ar      1 GPI        -0.3044
     13 C20       -11.0830    0.3410    4.3590 C.ar      1 GPI         0.0042
     14 C21       -10.2540   -0.7750    4.1390 C.ar      1 GPI        -0.0405
     15 C22        -9.7040   -0.9980    2.8570 C.ar      1 GPI        -0.0404
     16 C17        -9.9790   -0.1100    1.7950 C.ar      1 GPI        -0.0149
     17 C18       -10.8070    1.0070    2.0140 C.ar      1 GPI         0.0125
     18 C7         -5.3050    3.6950   -0.1600 C.2       1 GPI         0.2727
     19 O7         -6.3260    3.0110   -0.1540 O.2       1 GPI        -0.3607
     20 C8         -5.3820    5.1970    0.1730 C.2       1 GPI         0.2392
     21 O8         -5.0690    6.0280   -0.6770 O.2       1 GPI        -0.2906
     22 C9         -5.8500    5.6650    1.5650 C.3       1 GPI         0.0430
     23 C12        -5.0260    6.8920    1.9930 C.3       1 GPI        -0.0545
     24 C13        -5.6530    4.5360    2.5930 C.3       1 GPI        -0.0545
     25 C10        -7.3390    6.0470    1.5040 C.3       1 GPI        -0.0453
     26 C11        -7.5410    7.1600    0.4610 C.3       1 GPI        -0.0659
     27 H1         -3.9520    1.5191   -1.8877 H         1 GPI         0.0820
     28 H2         -2.6562    4.5229    0.3529 H         1 GPI         0.0526
     29 H3         -2.6748    4.4127   -1.4399 H         1 GPI         0.0526
     30 H4         -1.9693    0.6488   -0.9611 H         1 GPI         0.0314
     31 H5         -2.4533    1.0681    0.7171 H         1 GPI         0.0314
     32 H6         -1.0589    2.8854    0.4263 H         1 GPI         0.0287
     33 H7         -1.1040    2.7498   -1.3643 H         1 GPI         0.0287
     34 H8         -6.7749    1.3155    1.3014 H         1 GPI         0.0615
     35 H9         -7.0104   -0.4472    1.0484 H         1 GPI         0.0615
     36 H10        -8.4135    0.9038   -1.0721 H         1 GPI         0.0314
     37 H11        -8.8433    1.7395    0.4588 H         1 GPI         0.0314
     38 H12        -8.7962   -1.2956    0.4169 H         1 GPI         0.0442
     39 H13       -10.1856   -0.4434   -0.3381 H         1 GPI         0.0442
     40 H14       -11.5090    0.5182    5.3399 H         1 GPI         0.0767
     41 H15       -10.0384   -1.4609    4.9503 H         1 GPI         0.0693
     42 H16        -9.0659   -1.8577    2.6877 H         1 GPI         0.0678
     43 H17       -11.0213    1.6935    1.2029 H         1 GPI         0.0765
     44 H18        -5.3580    7.2282    2.9864 H         1 GPI         0.0219
     45 H19        -5.1705    7.7031    1.2642 H         1 GPI         0.0219
     46 H20        -3.9605    6.6218    2.0345 H         1 GPI         0.0219
     47 H21        -6.2410    3.6572    2.2897 H         1 GPI         0.0219
     48 H22        -5.9895    4.8784    3.5827 H         1 GPI         0.0219
     49 H23        -4.5878    4.2656    2.6411 H         1 GPI         0.0219
     50 H24        -7.6662    6.4058    2.4910 H         1 GPI         0.0252
     51 H25        -7.9322    5.1656    1.2191 H         1 GPI         0.0252
     52 H26        -8.6057    7.4329    0.4176 H         1 GPI         0.0228
     53 H27        -7.2139    6.8013   -0.5261 H         1 GPI         0.0228
     54 H28        -6.9479    8.0415    0.7458 H         1 GPI         0.0228
@<TRIPOS>BOND
     1    1    2 1  
     2    1    4 1  
     3    6    1 1  
     4    1   27 1  
     5    2    3 1  
     6    2   18 am 
     7    5    3 1  
     8    3   28 1  
     9    3   29 1  
    10    4    5 1  
    11    4   30 1  
    12    4   31 1  
    13    5   32 1  
    14    5   33 1  
    15    6    7 2  
    16    8    6 1  
    17    9    8 1  
    18   10    9 1  
    19    9   34 1  
    20    9   35 1  
    21   11   10 1  
    22   10   36 1  
    23   10   37 1  
    24   16   11 1  
    25   11   38 1  
    26   11   39 1  
    27   13   12 ar 
    28   12   17 ar 
    29   14   13 ar 
    30   13   40 1  
    31   15   14 ar 
    32   14   41 1  
    33   15   16 ar 
    34   15   42 1  
    35   16   17 ar 
    36   17   43 1  
    37   18   19 2  
    38   18   20 1  
    39   20   21 2  
    40   20   22 1  
    41   22   23 1  
    42   22   24 1  
    43   22   25 1  
    44   23   44 1  
    45   23   45 1  
    46   23   46 1  
    47   24   47 1  
    48   24   48 1  
    49   24   49 1  
    50   25   26 1  
    51   25   50 1  
    52   25   51 1  
    53   26   52 1  
    54   26   53 1  
    55   26   54 1  
@<TRIPOS>SUBSTRUCTURE
     1 GPI         1

