### 
### Created by X-TOOL on Mon Sep 10 21:12:47 2018
### 

@<TRIPOS>MOLECULE
1f4e_ligand
   32    33     1     0     0
SMALL
GAST_HUCK


@<TRIPOS>ATOM
      1 C1         38.0050   61.0350   78.5880 C.ar      1 TPR        -0.0588
      2 C2         38.3900   59.9010   77.8630 C.ar      1 TPR        -0.0460
      3 C3         38.3030   58.6360   78.4640 C.ar      1 TPR        -0.0588
      4 C4         37.8390   58.4910   79.7770 C.ar      1 TPR        -0.0419
      5 C5         37.4760   59.6340   80.4790 C.ar      1 TPR         0.1015
      6 C6         37.5440   60.8970   79.8990 C.ar      1 TPR        -0.0419
      7 C7         38.9080   60.0060   76.4330 C.3       1 TPR        -0.0311
      8 S8         36.8630   59.5010   82.1190 S.o2      1 TPR         0.0692
      9 O9         37.4950   60.6150   83.0490 O.2       1 TPR        -0.1509
     10 O10        37.2030   58.0690   82.7100 O.2       1 TPR        -0.1509
     11 N          35.1210   59.7520   82.1440 N.am      1 TPR        -0.2189
     12 CD         34.5120   60.0170   80.8280 C.3       1 TPR         0.0319
     13 CG         33.4720   58.9200   80.6770 C.3       1 TPR        -0.0325
     14 CB         33.0440   58.6100   82.1100 C.3       1 TPR        -0.0197
     15 CA         34.2970   58.8680   82.9760 C.3       1 TPR         0.0928
     16 C          34.0590   59.4180   84.3980 C.2       1 TPR         0.0566
     17 O          33.8350   58.6810   85.3640 O.co2     1 TPR        -0.5670
     18 OXT        34.1160   60.7720   84.5760 O.co2     1 TPR        -0.5670
     19 H1         38.0645   62.0172   78.1332 H         1 TPR         0.0557
     20 H2         38.5997   57.7572   77.9029 H         1 TPR         0.0557
     21 H3         37.7647   57.5112   80.2347 H         1 TPR         0.0619
     22 H4         37.2400   61.7713   80.4632 H         1 TPR         0.0619
     23 H5         38.9107   61.0607   76.1206 H         1 TPR         0.0391
     24 H6         38.2554   59.4269   75.7631 H         1 TPR         0.0391
     25 H7         39.9316   59.6063   76.3835 H         1 TPR         0.0391
     26 H8         35.2652   59.9544   80.0288 H         1 TPR         0.0479
     27 H9         34.0387   61.0098   80.8089 H         1 TPR         0.0479
     28 H10        33.9093   58.0308   80.1995 H         1 TPR         0.0282
     29 H11        32.6166   59.2725   80.0820 H         1 TPR         0.0282
     30 H12        32.7244   57.5612   82.1981 H         1 TPR         0.0302
     31 H13        32.2206   59.2713   82.4176 H         1 TPR         0.0302
     32 H14        34.8242   57.9109   83.1026 H         1 TPR         0.0682
@<TRIPOS>BOND
     1    6    1 ar 
     2    1    2 ar 
     3    2    7 1  
     4    2    3 ar 
     5    3    4 ar 
     6    4    5 ar 
     7    5    8 1  
     8    5    6 ar 
     9    8   11 am 
    10    8   10 2  
    11    8    9 2  
    12   11   15 1  
    13   11   12 1  
    14   12   13 1  
    15   13   14 1  
    16   14   15 1  
    17   15   16 1  
    18   16   18 ar 
    19   16   17 ar 
    20    1   19 1  
    21    3   20 1  
    22    4   21 1  
    23    6   22 1  
    24    7   23 1  
    25    7   24 1  
    26    7   25 1  
    27   12   26 1  
    28   12   27 1  
    29   13   28 1  
    30   13   29 1  
    31   14   30 1  
    32   14   31 1  
    33   15   32 1  
@<TRIPOS>SUBSTRUCTURE
     1 TPR         1

