### 
### Created by X-TOOL on Mon Sep 10 21:12:47 2018
### 

@<TRIPOS>MOLECULE
1f4f_ligand
   46    47     1     0     0
SMALL
GAST_HUCK


@<TRIPOS>ATOM
      1 C1         16.0830   13.5170   30.2510 C.3       1 TP3        -0.0325
      2 C2         17.4530   13.8730   30.8970 C.3       1 TP3         0.0320
      3 N3         17.2220   15.2930   31.1590 N.am      1 TP3        -0.2177
      4 C4         16.2910   15.9270   30.2340 C.3       1 TP3         0.0929
      5 C5         15.8950   14.7310   29.3170 C.3       1 TP3        -0.0197
      6 C6         16.6250   17.1980   29.4520 C.2       1 TP3         0.0566
      7 O7         17.6970   17.4750   28.8890 O.co2     1 TP3        -0.5670
      8 O8         15.6600   18.0300   29.3840 O.co2     1 TP3        -0.5670
      9 S9         17.7180   15.9660   32.6620 S.o2      1 TP3         0.0741
     10 C10        16.5540   15.4030   33.8730 C.ar      1 TP3         0.1127
     11 O11        19.1170   15.4630   33.1360 O.2       1 TP3        -0.1495
     12 O12        17.6380   17.5550   32.6130 O.2       1 TP3        -0.1495
     13 C13        15.2840   15.9350   33.8350 C.ar      1 TP3        -0.0295
     14 C14        14.3640   15.5090   34.7770 C.ar      1 TP3        -0.0401
     15 C15        14.7610   14.5440   35.7220 C.ar      1 TP3         0.0501
     16 C16        16.0700   14.0180   35.7260 C.ar      1 TP3        -0.0401
     17 C17        16.9890   14.4540   34.7790 C.ar      1 TP3        -0.0295
     18 C18        13.6990   14.1060   36.7070 C.2       1 TP3         0.2066
     19 N19        14.0410   13.3750   37.7830 N.am      1 TP3        -0.2706
     20 C20        12.9540   12.8270   38.6390 C.3       1 TP3         0.0954
     21 C21        12.6190   11.3410   38.4960 C.3       1 TP3        -0.0064
     22 C22        13.4520   10.5780   37.4660 C.3       1 TP3         0.0038
     23 C23        13.4310    9.0670   37.6610 C.2       1 TP3         0.0350
     24 O24        12.4990   14.1670   36.4090 O.2       1 TP3        -0.3845
     25 C25        13.4980   13.2360   40.0520 C.2       1 TP3         0.0602
     26 O26        12.6340   13.4320   40.9230 O.co2     1 TP3        -0.5666
     27 O27        14.7340   13.3430   40.1930 O.co2     1 TP3        -0.5666
     28 O28        14.0100    8.6230   38.6770 O.co2     1 TP3        -0.5690
     29 O29        12.8710    8.3290   36.8300 O.co2     1 TP3        -0.5690
     30 H1         16.1317   12.5736   29.6875 H         1 TP3         0.0282
     31 H2         15.2826   13.4541   31.0029 H         1 TP3         0.0282
     32 H3         18.2905   13.7130   30.2020 H         1 TP3         0.0479
     33 H4         17.6317   13.3068   31.8230 H         1 TP3         0.0479
     34 H5         15.4110   16.2066   30.8319 H         1 TP3         0.0683
     35 H6         14.8510   14.8163   28.9813 H         1 TP3         0.0302
     36 H7         16.5575   14.6652   28.4414 H         1 TP3         0.0302
     37 H8         15.0118   16.6694   33.0856 H         1 TP3         0.0649
     38 H9         13.3572   15.9106   34.7870 H         1 TP3         0.0670
     39 H10        16.3575   13.2777   36.4638 H         1 TP3         0.0670
     40 H11        18.0013   14.0673   34.7521 H         1 TP3         0.0649
     41 H12        15.0016   13.2041   38.0023 H         1 TP3         0.1869
     42 H13        12.0228   13.3733   38.4284 H         1 TP3         0.0727
     43 H14        11.5612   11.2578   38.2060 H         1 TP3         0.0323
     44 H15        12.7694   10.8633   39.4753 H         1 TP3         0.0323
     45 H16        14.4940   10.9231   37.5373 H         1 TP3         0.0432
     46 H17        13.0584   10.8045   36.4641 H         1 TP3         0.0432
@<TRIPOS>BOND
     1    5    1 1  
     2    1    2 1  
     3    2    3 1  
     4    3    9 am 
     5    3    4 1  
     6    4    6 1  
     7    4    5 1  
     8    6    8 ar 
     9    6    7 ar 
    10    9   12 2  
    11    9   11 2  
    12    9   10 1  
    13   10   17 ar 
    14   10   13 ar 
    15   13   14 ar 
    16   14   15 ar 
    17   15   18 1  
    18   15   16 ar 
    19   16   17 ar 
    20   18   24 2  
    21   18   19 am 
    22   19   20 1  
    23   20   25 1  
    24   20   21 1  
    25   21   22 1  
    26   22   23 1  
    27   23   29 ar 
    28   23   28 ar 
    29   25   27 ar 
    30   25   26 ar 
    31    1   30 1  
    32    1   31 1  
    33    2   32 1  
    34    2   33 1  
    35    4   34 1  
    36    5   35 1  
    37    5   36 1  
    38   13   37 1  
    39   14   38 1  
    40   16   39 1  
    41   17   40 1  
    42   19   41 1  
    43   20   42 1  
    44   21   43 1  
    45   21   44 1  
    46   22   45 1  
    47   22   46 1  
@<TRIPOS>SUBSTRUCTURE
     1 TP3         1

