### 
### Created by X-TOOL on Mon Sep 10 21:12:47 2018
### 

@<TRIPOS>MOLECULE
1f4g_ligand
   56    57     1     0     0
SMALL
GAST_HUCK


@<TRIPOS>ATOM
      1 C1         15.8620   13.7790   30.1580 C.3       1 TP4        -0.0319
      2 C2         16.9920   13.9700   31.1850 C.3       1 TP4         0.0327
      3 N3         16.8370   15.3840   31.5640 N.am      1 TP4        -0.2118
      4 C4         15.8290   16.0880   30.7340 C.3       1 TP4         0.1294
      5 C5         15.7590   15.1630   29.4930 C.3       1 TP4        -0.0142
      6 C6         16.1610   17.5860   30.4220 C.2       1 TP4         0.1981
      7 O7         17.3600   17.8920   30.3700 O.2       1 TP4        -0.3950
      8 N8         15.2010   18.4940   30.1840 N.am      1 TP4        -0.2838
      9 S9         17.0960   15.8630   33.1930 S.o2      1 TP4         0.0746
     10 C10        16.0530   15.0270   34.3300 C.ar      1 TP4         0.1128
     11 O11        18.6050   15.6420   33.5640 O.2       1 TP4        -0.1494
     12 O12        16.6690   17.3750   33.2680 O.2       1 TP4        -0.1494
     13 C13        14.6990   15.1390   34.0750 C.ar      1 TP4        -0.0295
     14 C14        13.8230   14.5480   34.9700 C.ar      1 TP4        -0.0401
     15 C15        14.3380   13.8840   36.1040 C.ar      1 TP4         0.0501
     16 C16        15.7170   13.7990   36.3290 C.ar      1 TP4        -0.0401
     17 C17        16.6050   14.3860   35.4310 C.ar      1 TP4        -0.0295
     18 C18        13.3490   13.2270   37.0480 C.2       1 TP4         0.2066
     19 N19        13.8210   12.7210   38.2010 N.am      1 TP4        -0.2706
     20 C20        12.8470   12.0330   39.1310 C.3       1 TP4         0.0954
     21 C21        13.1060   10.5130   39.2510 C.3       1 TP4        -0.0064
     22 C22        14.0190    9.8950   38.1720 C.3       1 TP4         0.0038
     23 C23        14.6720    8.6310   38.7460 C.2       1 TP4         0.0350
     24 O24        12.1810   13.0390   36.6770 O.2       1 TP4        -0.3845
     25 C25        13.0430   12.7980   40.4880 C.2       1 TP4         0.0602
     26 O26        12.1320   12.7460   41.3150 O.co2     1 TP4        -0.5666
     27 O27        14.1400   13.3790   40.6250 O.co2     1 TP4        -0.5666
     28 O28        15.1840    8.6400   39.8870 O.co2     1 TP4        -0.5690
     29 O29        14.6830    7.5930   38.0580 O.co2     1 TP4        -0.5690
     30 C30        15.2700   19.9480   30.0370 C.3       1 TP4         0.0424
     31 C31        15.0900   20.6270   31.4120 C.3       1 TP4         0.0204
     32 C32        15.4300   22.1250   31.2540 C.2       1 TP4         0.0367
     33 O33        14.5320   22.9560   31.5020 O.co2     1 TP4        -0.5689
     34 O34        16.5810   22.4080   30.8770 O.co2     1 TP4        -0.5689
     35 H1         16.1242   13.0052   29.4214 H         1 TP4         0.0283
     36 H2         14.9186   13.5080   30.6545 H         1 TP4         0.0283
     37 H3         17.9772   13.7849   30.7321 H         1 TP4         0.0480
     38 H4         16.8572   13.3080   32.0531 H         1 TP4         0.0480
     39 H5         14.8585   16.0789   31.2518 H         1 TP4         0.0756
     40 H6         14.8086   15.2825   28.9523 H         1 TP4         0.0309
     41 H7         16.5977   15.3448   28.8049 H         1 TP4         0.0309
     42 H8         14.2819   18.1111   30.0914 H         1 TP4         0.1852
     43 H9         14.3352   15.6715   33.2037 H         1 TP4         0.0649
     44 H10        12.7532   14.5948   34.8015 H         1 TP4         0.0670
     45 H11        16.0933   13.2768   37.2013 H         1 TP4         0.0670
     46 H12        17.6773   14.3444   35.5845 H         1 TP4         0.0649
     47 H13        14.7897   12.7976   38.4370 H         1 TP4         0.1869
     48 H14        11.8185   12.1748   38.7675 H         1 TP4         0.0727
     49 H15        12.1336   10.0011   39.2024 H         1 TP4         0.0323
     50 H16        13.5698   10.3270   40.2309 H         1 TP4         0.0323
     51 H17        14.7980   10.6177   37.8879 H         1 TP4         0.0432
     52 H18        13.4211    9.6333   37.2866 H         1 TP4         0.0432
     53 H19        14.4725   20.2837   29.3578 H         1 TP4         0.0538
     54 H20        16.2488   20.2258   29.6190 H         1 TP4         0.0538
     55 H21        15.7665   20.1664   32.1470 H         1 TP4         0.0450
     56 H22        14.0494   20.5143   31.7504 H         1 TP4         0.0450
@<TRIPOS>BOND
     1    5    1 1  
     2    1    2 1  
     3    2    3 1  
     4    3    9 am 
     5    3    4 1  
     6    4    6 1  
     7    4    5 1  
     8    6    8 am 
     9    6    7 2  
    10    8   30 1  
    11   30   31 1  
    12   31   32 1  
    13   32   34 ar 
    14   32   33 ar 
    15    9   12 2  
    16    9   11 2  
    17    9   10 1  
    18   10   17 ar 
    19   10   13 ar 
    20   13   14 ar 
    21   14   15 ar 
    22   15   18 1  
    23   15   16 ar 
    24   16   17 ar 
    25   18   24 2  
    26   18   19 am 
    27   19   20 1  
    28   20   25 1  
    29   20   21 1  
    30   21   22 1  
    31   22   23 1  
    32   23   29 ar 
    33   23   28 ar 
    34   25   27 ar 
    35   25   26 ar 
    36    1   35 1  
    37    1   36 1  
    38    2   37 1  
    39    2   38 1  
    40    4   39 1  
    41    5   40 1  
    42    5   41 1  
    43    8   42 1  
    44   13   43 1  
    45   14   44 1  
    46   16   45 1  
    47   17   46 1  
    48   19   47 1  
    49   20   48 1  
    50   21   49 1  
    51   21   50 1  
    52   22   51 1  
    53   22   52 1  
    54   30   53 1  
    55   30   54 1  
    56   31   55 1  
    57   31   56 1  
@<TRIPOS>SUBSTRUCTURE
     1 TP4         1

