### 
### Created by X-TOOL on Mon Sep 10 21:12:47 2018
### 

@<TRIPOS>MOLECULE
1f4x_ligand
   43    43     1     0     0
SMALL
GAST_HUCK


@<TRIPOS>ATOM
      1 C1         -7.8070  -21.7350   18.3110 C.3       1 MGS         0.1877
      2 O1         -8.3470  -21.8120   19.6040 O.3       1 MGS        -0.3519
      3 C7         -8.2540  -23.1530   20.1440 C.3       1 MGS         0.0395
      4 C2         -8.2330  -20.4470   17.6300 C.3       1 MGS         0.1369
      5 O2         -7.5690  -20.2700   16.3690 O.3       1 MGS        -0.3721
      6 C8         -6.1850  -19.9980   16.6490 C.3       1 MGS         0.0371
      7 C3         -9.7530  -20.4310   17.3620 C.3       1 MGS         0.1112
      8 O3        -10.0820  -19.3010   16.5180 O.3       1 MGS        -0.3867
      9 C4        -10.1110  -21.7190   16.6250 C.3       1 MGS         0.0964
     10 N4        -11.5860  -21.9050   16.4020 N.am      1 MGS        -0.2767
     11 C9        -11.8900  -21.6680   15.1410 C.2       1 MGS         0.2054
     12 O9        -10.9450  -21.3860   14.4220 O.2       1 MGS        -0.3942
     13 C5         -9.5410  -22.9810   17.2830 C.3       1 MGS         0.0843
     14 O5         -8.0930  -22.8950   17.5250 O.3       1 MGS        -0.3434
     15 C6         -9.8510  -24.2360   16.4340 C.3       1 MGS        -0.0363
     16 C12       -15.1280  -23.0140   13.6980 C.3       1 MGS         0.0487
     17 O12       -16.0240  -22.9060   14.8070 O.3       1 MGS        -0.3948
     18 C11       -13.8460  -23.0380   14.4390 C.3       1 MGS         0.0138
     19 C10       -13.1310  -21.6910   14.2410 C.3       1 MGS         0.1456
     20 O10       -13.8570  -20.4940   14.2140 O.3       1 MGS        -0.3713
     21 H1         -6.7134  -21.6930   18.4218 H         1 MGS         0.0937
     22 H2         -8.6864  -23.1718   21.1553 H         1 MGS         0.0525
     23 H3         -7.1979  -23.4569   20.1911 H         1 MGS         0.0525
     24 H4         -8.8071  -23.8485   19.4957 H         1 MGS         0.0525
     25 H5         -7.9758  -19.6063   18.2911 H         1 MGS         0.0673
     26 H6         -5.6408  -19.8559   15.7037 H         1 MGS         0.0524
     27 H7         -5.7489  -20.8447   17.1994 H         1 MGS         0.0524
     28 H8         -6.1066  -19.0853   17.2580 H         1 MGS         0.0524
     29 H9        -10.3062  -20.3664   18.3106 H         1 MGS         0.0645
     30 H10        -9.5873  -19.3569   15.7089 H         1 MGS         0.2100
     31 H11        -9.6462  -21.6383   15.6313 H         1 MGS         0.0608
     32 H12       -12.2422  -22.1703   17.1084 H         1 MGS         0.1857
     33 H13       -10.0369  -23.0972   18.2580 H         1 MGS         0.0618
     34 H14        -9.4319  -25.1252   16.9276 H         1 MGS         0.0255
     35 H15        -9.4012  -24.1242   15.4364 H         1 MGS         0.0255
     36 H16       -10.9404  -24.3513   16.3342 H         1 MGS         0.0255
     37 H17       -15.2906  -23.9386   13.1247 H         1 MGS         0.0559
     38 H18       -15.1991  -22.1474   13.0242 H         1 MGS         0.0559
     39 H19       -16.9185  -22.8781   14.4884 H         1 MGS         0.2094
     40 H20       -14.0413  -23.1986   15.5095 H         1 MGS         0.0337
     41 H21       -13.2131  -23.8519   14.0556 H         1 MGS         0.0337
     42 H22       -12.7363  -21.7535   13.2162 H         1 MGS         0.0838
     43 H23       -13.2994  -19.7938   13.8957 H         1 MGS         0.2133
@<TRIPOS>BOND
     1    1   14 1  
     2    1    4 1  
     3    1    2 1  
     4    2    3 1  
     5    4    7 1  
     6    4    5 1  
     7    5    6 1  
     8    7    9 1  
     9    7    8 1  
    10    9   13 1  
    11    9   10 1  
    12   10   11 am 
    13   11   19 1  
    14   11   12 2  
    15   19   20 1  
    16   19   18 1  
    17   18   16 1  
    18   16   17 1  
    19   13   15 1  
    20   13   14 1  
    21    1   21 1  
    22    3   22 1  
    23    3   23 1  
    24    3   24 1  
    25    4   25 1  
    26    6   26 1  
    27    6   27 1  
    28    6   28 1  
    29    7   29 1  
    30    8   30 1  
    31    9   31 1  
    32   10   32 1  
    33   13   33 1  
    34   15   34 1  
    35   15   35 1  
    36   15   36 1  
    37   16   37 1  
    38   16   38 1  
    39   17   39 1  
    40   18   40 1  
    41   18   41 1  
    42   19   42 1  
    43   20   43 1  
@<TRIPOS>SUBSTRUCTURE
     1 MGS         1

