### 
### Created by X-TOOL on Mon Sep 10 21:12:47 2018
### 

@<TRIPOS>MOLECULE
1f4y_ligand
   77    78     1     0     0
SMALL
GAST_HUCK


@<TRIPOS>ATOM
      1 C1         39.3180   34.9420   -6.4200 C.3       1 MGU         0.1887
      2 C2         38.7270   33.5480   -6.6370 C.3       1 MGU         0.1369
      3 O2         37.5110   33.3580   -5.9690 O.3       1 MGU        -0.3721
      4 C8         36.4450   32.7640   -6.6590 C.3       1 MGU         0.0371
      5 C3         38.7160   33.3610   -8.1610 C.3       1 MGU         0.1112
      6 O3         38.4540   31.9860   -8.5400 O.3       1 MGU        -0.3867
      7 C4         37.7670   34.3810   -8.7660 C.3       1 MGU         0.0964
      8 N4         37.6350   34.2850  -10.2700 N.am      1 MGU        -0.2767
      9 C9         36.3310   34.4370  -10.6040 C.2       1 MGU         0.2054
     10 O9         35.7300   34.5970   -9.5450 O.2       1 MGU        -0.3942
     11 C5         38.1820   35.8250   -8.4210 C.3       1 MGU         0.0843
     12 O5         38.7900   36.0420   -7.1270 O.3       1 MGU        -0.3433
     13 C6         36.9910   36.8020   -8.5370 C.3       1 MGU        -0.0363
     14 C12        36.0800   35.4420  -14.1210 C.3       1 MGU         0.0487
     15 O12        37.4410   35.8630  -14.2980 O.3       1 MGU        -0.3948
     16 C11        35.7620   35.6930  -12.7050 C.3       1 MGU         0.0138
     17 C10        35.4340   34.4700  -11.8440 C.3       1 MGU         0.1456
     18 O10        35.2150   33.2860  -12.5640 O.3       1 MGU        -0.3713
     19 C21        41.8150   36.6270   -7.7930 C.3       1 MGU         0.1878
     20 O1         40.6950   34.7540   -6.7710 O.3       1 MGU        -0.3378
     21 C27        43.9480   36.9350   -6.9700 C.3       1 MGU         0.0395
     22 C22        41.6340   35.7800   -6.5380 C.3       1 MGU         0.1403
     23 O21        42.7460   37.6040   -7.3840 O.3       1 MGU        -0.3519
     24 C23        42.9590   35.1650   -6.0840 C.3       1 MGU         0.1113
     25 O23        42.9170   34.0200   -5.2110 O.3       1 MGU        -0.3867
     26 C24        43.6390   34.5750   -7.3000 C.3       1 MGU         0.0964
     27 N24        45.0090   34.0580   -6.9980 N.am      1 MGU        -0.2767
     28 C29        45.1350   32.7780   -7.4070 C.2       1 MGU         0.2054
     29 O29        44.2870   32.3790   -8.2050 O.2       1 MGU        -0.3942
     30 C25        43.7620   35.5740   -8.4530 C.3       1 MGU         0.0843
     31 O25        42.4200   35.9330   -8.9150 O.3       1 MGU        -0.3434
     32 C26        44.7110   34.9710   -9.4950 C.3       1 MGU        -0.0363
     33 C32        48.4520   31.6250   -5.9460 C.3       1 MGU         0.0487
     34 O32        48.1920   30.2260   -6.1160 O.3       1 MGU        -0.3948
     35 C31        47.6360   32.4130   -6.9320 C.3       1 MGU         0.0138
     36 C30        46.2190   31.8340   -6.8830 C.3       1 MGU         0.1456
     37 O30        45.9550   31.3740   -5.5880 O.3       1 MGU        -0.3713
     38 H1         39.2315   35.1846   -5.3506 H         1 MGU         0.0938
     39 H2         39.4231   32.8073   -6.2164 H         1 MGU         0.0673
     40 H3         35.5727   32.6903   -5.9929 H         1 MGU         0.0524
     41 H4         36.7387   31.7573   -6.9911 H         1 MGU         0.0524
     42 H5         36.1871   33.3782   -7.5343 H         1 MGU         0.0524
     43 H6         39.7238   33.5982   -8.5324 H         1 MGU         0.0645
     44 H7         37.6060   31.7218   -8.2028 H         1 MGU         0.2100
     45 H8         36.7746   34.1949   -8.3295 H         1 MGU         0.0608
     46 H9         38.3867   34.1341  -10.9120 H         1 MGU         0.1857
     47 H10        38.9293   36.1130   -9.1751 H         1 MGU         0.0618
     48 H11        37.3251   37.8190   -8.2841 H         1 MGU         0.0255
     49 H12        36.1953   36.4942   -7.8427 H         1 MGU         0.0255
     50 H13        36.6046   36.7885   -9.5668 H         1 MGU         0.0255
     51 H14        35.9772   34.3716  -14.3525 H         1 MGU         0.0559
     52 H15        35.4114   36.0239  -14.7724 H         1 MGU         0.0559
     53 H16        37.7000   35.7221  -15.2011 H         1 MGU         0.2094
     54 H17        34.8919   36.3652  -12.6734 H         1 MGU         0.0337
     55 H18        36.6300   36.1951  -12.2529 H         1 MGU         0.0337
     56 H19        34.4375   34.6872  -11.4321 H         1 MGU         0.0838
     57 H20        35.0189   32.5804  -11.9589 H         1 MGU         0.2133
     58 H21        40.8556   37.0685   -8.1007 H         1 MGU         0.0937
     59 H22        44.6895   37.6803   -6.6462 H         1 MGU         0.0525
     60 H23        44.3541   36.3559   -7.8124 H         1 MGU         0.0525
     61 H24        43.7209   36.2567   -6.1343 H         1 MGU         0.0525
     62 H25        41.2563   36.4286   -5.7339 H         1 MGU         0.0675
     63 H26        43.5660   35.9576   -5.6221 H         1 MGU         0.0645
     64 H27        42.4532   33.3116   -5.6417 H         1 MGU         0.2100
     65 H28        43.0210   33.7316   -7.6415 H         1 MGU         0.0608
     66 H29        45.7321   34.5874   -6.5543 H         1 MGU         0.1857
     67 H30        44.2315   36.4951   -8.0773 H         1 MGU         0.0618
     68 H31        44.8198   35.6683  -10.3388 H         1 MGU         0.0255
     69 H32        44.2992   34.0177   -9.8579 H         1 MGU         0.0255
     70 H33        45.6950   34.7944   -9.0361 H         1 MGU         0.0255
     71 H34        49.5209   31.8219   -6.1153 H         1 MGU         0.0559
     72 H35        48.1811   31.9261   -4.9233 H         1 MGU         0.0559
     73 H36        47.2688   30.0565   -5.9694 H         1 MGU         0.2094
     74 H37        48.0553   32.3069   -7.9434 H         1 MGU         0.0337
     75 H38        47.6222   33.4763   -6.6504 H         1 MGU         0.0337
     76 H39        46.2093   30.9574   -7.5474 H         1 MGU         0.0838
     77 H40        46.5838   30.6999   -5.3583 H         1 MGU         0.2133
@<TRIPOS>BOND
     1    1    2 1  
     2    1   12 1  
     3   20    1 1  
     4    2    3 1  
     5    2    5 1  
     6    3    4 1  
     7    5    6 1  
     8    5    7 1  
     9    7    8 1  
    10   11    7 1  
    11    8    9 am 
    12    9   10 2  
    13    9   17 1  
    14   12   11 1  
    15   11   13 1  
    16   14   15 1  
    17   16   14 1  
    18   17   16 1  
    19   17   18 1  
    20   22   19 1  
    21   19   23 1  
    22   31   19 1  
    23   22   20 1  
    24   23   21 1  
    25   24   22 1  
    26   24   25 1  
    27   26   24 1  
    28   27   26 1  
    29   26   30 1  
    30   28   27 am 
    31   28   29 2  
    32   36   28 1  
    33   30   31 1  
    34   30   32 1  
    35   33   34 1  
    36   35   33 1  
    37   35   36 1  
    38   36   37 1  
    39    1   38 1  
    40    2   39 1  
    41    4   40 1  
    42    4   41 1  
    43    4   42 1  
    44    5   43 1  
    45    6   44 1  
    46    7   45 1  
    47    8   46 1  
    48   11   47 1  
    49   13   48 1  
    50   13   49 1  
    51   13   50 1  
    52   14   51 1  
    53   14   52 1  
    54   15   53 1  
    55   16   54 1  
    56   16   55 1  
    57   17   56 1  
    58   18   57 1  
    59   19   58 1  
    60   21   59 1  
    61   21   60 1  
    62   21   61 1  
    63   22   62 1  
    64   24   63 1  
    65   25   64 1  
    66   26   65 1  
    67   27   66 1  
    68   30   67 1  
    69   32   68 1  
    70   32   69 1  
    71   32   70 1  
    72   33   71 1  
    73   33   72 1  
    74   34   73 1  
    75   35   74 1  
    76   35   75 1  
    77   36   76 1  
    78   37   77 1  
@<TRIPOS>SUBSTRUCTURE
     1 MGU         1

