### 
### Created by X-TOOL on Mon Sep 10 21:12:47 2018
### 

@<TRIPOS>MOLECULE
1f57_ligand
   14    13     1     0     0
SMALL
GAST_HUCK


@<TRIPOS>ATOM
      1 N          10.3800  -11.1390   23.1390 N.4       1 DCY         0.2333
      2 CA          9.8350   -9.7500   23.2030 C.3       1 DCY         0.0372
      3 C           9.7540   -9.2620   24.6560 C.2       1 DCY         0.0852
      4 O           9.1790   -8.1830   24.9000 O.co2     1 DCY        -0.5642
      5 CB         10.7420   -8.8210   22.3980 C.3       1 DCY         0.0457
      6 SG         12.4220   -8.5870   23.0460 S.3       1 DCY        -0.1708
      7 OXT        10.2820   -9.9690   25.5330 O.co2     1 DCY        -0.5642
      8 H1         10.4243  -11.4385   22.1776 H         1 DCY         0.2010
      9 H2          9.7785  -11.7602   23.6570 H         1 DCY         0.2010
     10 H3         11.3050  -11.1558   23.5391 H         1 DCY         0.2010
     11 H4          8.8254   -9.7399   22.7665 H         1 DCY         0.1032
     12 H5         10.2583   -7.8341   22.3539 H         1 DCY         0.0448
     13 H6         10.8281   -9.2329   21.3817 H         1 DCY         0.0448
     14 H7         12.8940   -9.4769   23.0818 H         1 DCY         0.1019
@<TRIPOS>BOND
     1    1    2 1  
     2    2    5 1  
     3    2    3 1  
     4    3    7 ar 
     5    3    4 ar 
     6    5    6 1  
     7    1    8 1  
     8    1    9 1  
     9    1   10 1  
    10    2   11 1  
    11    5   12 1  
    12    5   13 1  
    13    6   14 1  
@<TRIPOS>SUBSTRUCTURE
     1 DCY         1

