### 
### Created by X-TOOL on Mon Sep 10 21:12:48 2018
### 

@<TRIPOS>MOLECULE
1f5k_ligand
   18    18     1     0     0
SMALL
GAST_HUCK


@<TRIPOS>ATOM
      1 C1         31.6410    5.1930   28.1710 C.ar      1 BAM         0.0260
      2 C2         30.5160    4.7390   28.9170 C.ar      1 BAM        -0.0565
      3 C3         29.4310    5.5860   29.2060 C.ar      1 BAM        -0.0618
      4 C4         29.4310    6.9220   28.7570 C.ar      1 BAM        -0.0618
      5 C5         30.5300    7.3980   28.0180 C.ar      1 BAM        -0.0618
      6 C6         31.6150    6.5470   27.7310 C.ar      1 BAM        -0.0565
      7 C          32.7410    4.3330   27.8770 C.cat     1 BAM         0.2356
      8 N1         33.7960    4.7450   27.1870 N.pl3     1 BAM        -0.2721
      9 N2         32.7780    3.0680   28.2730 N.pl3     1 BAM        -0.2721
     10 H1         30.4954    3.7147   29.2711 H         1 BAM         0.0617
     11 H2         28.5902    5.2092   29.7772 H         1 BAM         0.0618
     12 H3         28.5945    7.5750   28.9782 H         1 BAM         0.0618
     13 H4         30.5415    8.4239   27.6682 H         1 BAM         0.0618
     14 H5         32.4520    6.9328   27.1603 H         1 BAM         0.0617
     15 H6         34.5713    4.0948   26.9943 H         1 BAM         0.3181
     16 H7         33.8401    5.7151   26.8438 H         1 BAM         0.3181
     17 H8         31.9948    2.6746   28.8140 H         1 BAM         0.3181
     18 H9         33.5900    2.4788   28.0396 H         1 BAM         0.3181
@<TRIPOS>BOND
     1    1    7 1  
     2    1    6 ar 
     3    1    2 ar 
     4    2    3 ar 
     5    3    4 ar 
     6    4    5 ar 
     7    5    6 ar 
     8    7    9 ar 
     9    7    8 ar 
    10    2   10 1  
    11    3   11 1  
    12    4   12 1  
    13    5   13 1  
    14    6   14 1  
    15    8   15 1  
    16    8   16 1  
    17    9   17 1  
    18    9   18 1  
@<TRIPOS>SUBSTRUCTURE
     1 BAM         1

