### 
### Created by X-TOOL on Mon Sep 10 21:12:48 2018
### 

@<TRIPOS>MOLECULE
1f5l_ligand
   24    24     1     0     0
SMALL
GAST_HUCK


@<TRIPOS>ATOM
      1 N1         31.1120    7.6690   27.6830 N.ar      1 AMR        -0.2659
      2 C1         30.5020    6.7410   28.4320 C.ar      1 AMR         0.1498
      3 C3         31.2400    5.3550   28.6010 C.2       1 AMR         0.2136
      4 N5         32.5550    5.2790   28.1310 N.am      1 AMR        -0.2249
      5 C6         33.2510    4.1770   28.0800 C.cat     1 AMR         0.3256
      6 N7         32.7670    3.0180   28.4620 N.pl3     1 AMR        -0.2544
      7 N6         34.4700    4.2400   27.6300 N.pl3     1 AMR        -0.2544
      8 O1         30.6520    4.3960   29.1150 O.2       1 AMR        -0.3901
      9 C2         29.2610    7.0260   29.0190 C.ar      1 AMR         0.1401
     10 N4         28.5730    6.0860   29.8140 N.pl3     1 AMR        -0.3162
     11 N3         28.6930    8.2380   28.8250 N.ar      1 AMR        -0.2447
     12 C4         29.3140    9.1790   28.0650 C.ar      1 AMR         0.1455
     13 N2         28.6660   10.4360   27.8950 N.pl3     1 AMR        -0.3161
     14 C5         30.5610    8.8800   27.4780 C.ar      1 AMR         0.1562
     15 CL1        31.4320   10.0160   26.4870 Cl        1 AMR        -0.0494
     16 H1         32.9889    6.1224   27.8142 H         1 AMR         0.1846
     17 H2         33.3514    2.1718   28.4049 H         1 AMR         0.3199
     18 H3         31.8028    2.9549   28.8188 H         1 AMR         0.3199
     19 H4         34.8612    5.1435   27.3272 H         1 AMR         0.3199
     20 H5         35.0440    3.3864   27.5765 H         1 AMR         0.3199
     21 H6         27.6628    6.3308   30.2293 H         1 AMR         0.1804
     22 H7         28.9808    5.1547   29.9793 H         1 AMR         0.1804
     23 H8         29.1091   11.1710   27.3254 H         1 AMR         0.1802
     24 H9         27.7543   10.6100   28.3417 H         1 AMR         0.1802
@<TRIPOS>BOND
     1   14    1 ar 
     2    1    2 ar 
     3    2    9 ar 
     4    2    3 1  
     5    3    8 2  
     6    3    4 am 
     7    4    5 ar 
     8    5    7 ar 
     9    5    6 ar 
    10    9   11 ar 
    11    9   10 1  
    12   11   12 ar 
    13   12   14 ar 
    14   12   13 1  
    15   14   15 1  
    16    4   16 1  
    17    6   17 1  
    18    6   18 1  
    19    7   19 1  
    20    7   20 1  
    21   10   21 1  
    22   10   22 1  
    23   13   23 1  
    24   13   24 1  
@<TRIPOS>SUBSTRUCTURE
     1 AMR         1

