### 
### Created by X-TOOL on Mon Sep 10 21:12:47 2018
### 

@<TRIPOS>MOLECULE
1f73_ligand
   41    40     1     0     0
SMALL
GAST_HUCK


@<TRIPOS>ATOM
      1 C1         -9.4740   47.0300   49.6750 C.2       1 HMN         0.0634
      2 O1A       -10.2720   46.1000   49.9960 O.co2     1 HMN        -0.5663
      3 O1B        -9.6740   47.8440   48.7320 O.co2     1 HMN        -0.5663
      4 C2         -8.2320   47.2110   50.5060 C.3       1 HMN         0.1097
      5 O2         -7.7010   48.5420   50.4310 O.3       1 HMN        -0.3776
      6 C3         -7.1790   46.1860   50.1510 C.3       1 HMN         0.0134
      7 C4         -6.1450   46.1560   51.2720 C.3       1 HMN         0.0844
      8 O4         -5.2550   47.2540   51.1070 O.3       1 HMN        -0.3892
      9 C5         -5.3730   44.8430   51.1950 C.3       1 HMN         0.0963
     10 N2         -4.6850   44.8480   49.8860 N.am      1 HMN        -0.2790
     11 C10        -4.8060   43.7900   49.0840 C.2       1 HMN         0.1733
     12 O10        -5.2050   42.7010   49.5080 O.2       1 HMN        -0.3974
     13 C11        -4.4320   43.9160   47.6160 C.3       1 HMN         0.0257
     14 C6         -4.3080   44.7080   52.2970 C.3       1 HMN         0.1087
     15 O6         -4.9050   44.8820   53.5770 O.3       1 HMN        -0.3868
     16 C7         -3.6610   43.3290   52.2240 C.3       1 HMN         0.1112
     17 O7         -4.6260   42.2820   52.1900 O.3       1 HMN        -0.3865
     18 C8         -2.7600   43.1070   53.4260 C.3       1 HMN         0.1065
     19 O8         -1.8270   44.1730   53.4540 O.3       1 HMN        -0.3869
     20 C9         -2.0810   41.7680   53.2140 C.3       1 HMN         0.0727
     21 O9         -1.0340   41.8640   52.2620 O.3       1 HMN        -0.3924
     22 H1         -8.5184   47.0371   51.5537 H         1 HMN         0.0764
     23 H2         -6.9756   48.6270   51.0385 H         1 HMN         0.2123
     24 H3         -6.6933   46.4639   49.2040 H         1 HMN         0.0334
     25 H4         -7.6444   45.1947   50.0473 H         1 HMN         0.0334
     26 H5         -6.6486   46.2320   52.2470 H         1 HMN         0.0619
     27 H6         -4.5997   47.2352   51.7946 H         1 HMN         0.2099
     28 H7         -6.0733   43.9973   51.2617 H         1 HMN         0.0608
     29 H8         -4.1358   45.6353   49.6059 H         1 HMN         0.1856
     30 H9         -4.5945   42.9518   47.1122 H         1 HMN         0.0467
     31 H10        -3.3729   44.2004   47.5305 H         1 HMN         0.0467
     32 H11        -5.0580   44.6869   47.1430 H         1 HMN         0.0467
     33 H12        -3.5372   45.4787   52.1495 H         1 HMN         0.0644
     34 H13        -4.2377   44.8078   54.2492 H         1 HMN         0.2100
     35 H14        -3.0556   43.2799   51.3069 H         1 HMN         0.0647
     36 H15        -5.1384   42.2990   52.9898 H         1 HMN         0.2100
     37 H16        -3.3421   43.0925   54.3592 H         1 HMN         0.0643
     38 H17        -1.2114   44.0349   54.1642 H         1 HMN         0.2100
     39 H18        -2.8254   41.0419   52.8553 H         1 HMN         0.0584
     40 H19        -1.6637   41.4227   54.1714 H         1 HMN         0.0584
     41 H20        -0.3851   42.4867   52.5683 H         1 HMN         0.2095
@<TRIPOS>BOND
     1    1    4 1  
     2    1    3 ar 
     3    1    2 ar 
     4    4    6 1  
     5    4    5 1  
     6    6    7 1  
     7    7    9 1  
     8    7    8 1  
     9    9   14 1  
    10    9   10 1  
    11   10   11 am 
    12   11   13 1  
    13   11   12 2  
    14   14   16 1  
    15   14   15 1  
    16   16   18 1  
    17   16   17 1  
    18   18   20 1  
    19   18   19 1  
    20   20   21 1  
    21    4   22 1  
    22    5   23 1  
    23    6   24 1  
    24    6   25 1  
    25    7   26 1  
    26    8   27 1  
    27    9   28 1  
    28   10   29 1  
    29   13   30 1  
    30   13   31 1  
    31   13   32 1  
    32   14   33 1  
    33   15   34 1  
    34   16   35 1  
    35   17   36 1  
    36   18   37 1  
    37   19   38 1  
    38   20   39 1  
    39   20   40 1  
    40   21   41 1  
@<TRIPOS>SUBSTRUCTURE
     1 HMN         1

