### 
### Created by X-TOOL on Mon Sep 10 21:12:47 2018
### 

@<TRIPOS>MOLECULE
1f74_ligand
   38    37     1     0     0
SMALL
GAST_HUCK


@<TRIPOS>ATOM
      1 C1          1.9790   14.3000    6.2480 C.2       1 NAY         0.1248
      2 O1A         2.7170   13.3410    5.9700 O.co2     1 NAY        -0.5464
      3 O1B         0.8910   14.5830    5.7190 O.co2     1 NAY        -0.5464
      4 C2          2.5340   15.2150    7.3700 C.2       1 NAY         0.1715
      5 O2          3.7680   15.1950    7.5440 O.2       1 NAY        -0.3577
      6 C3          1.4840   16.0520    8.1210 C.3       1 NAY         0.0329
      7 C4          1.6290   16.0050    9.7010 C.3       1 NAY        -0.0111
      8 C5          0.2090   15.8060   10.3300 C.3       1 NAY         0.0724
      9 N           0.1130   14.5130   11.0610 N.am      1 NAY        -0.2814
     10 C10        -0.9710   13.7350   10.9580 C.2       1 NAY         0.1732
     11 C11        -0.7590   12.3720   11.6120 C.3       1 NAY         0.0257
     12 O10        -2.0740   14.0130   10.4330 O.2       1 NAY        -0.3974
     13 O6         -0.1450   18.1810   10.5700 O.3       1 NAY        -0.3869
     14 C6         -0.1740   16.9550   11.3340 C.3       1 NAY         0.1064
     15 C7         -1.6170   16.7650   11.8980 C.3       1 NAY         0.1111
     16 O7         -2.5030   16.5780   10.7990 O.3       1 NAY        -0.3865
     17 C8         -2.0580   17.9900   12.7340 C.3       1 NAY         0.1065
     18 O8         -0.9840   18.2830   13.6620 O.3       1 NAY        -0.3869
     19 C9         -3.3860   17.7670   13.4230 C.3       1 NAY         0.0727
     20 O9         -3.3140   16.7290   14.4080 O.3       1 NAY        -0.3924
     21 H1          0.4858   15.6747    7.8541 H         1 NAY         0.0499
     22 H2          1.5794   17.0986    7.7961 H         1 NAY         0.0499
     23 H3          2.0642   16.9489   10.0610 H         1 NAY         0.0313
     24 H4          2.2816   15.1673    9.9880 H         1 NAY         0.0313
     25 H5         -0.5235   15.8021    9.5094 H         1 NAY         0.0584
     26 H6          0.8735   14.2199   11.6405 H         1 NAY         0.1855
     27 H7         -1.6717   11.7676   11.5041 H         1 NAY         0.0467
     28 H8         -0.5340   12.5087   12.6800 H         1 NAY         0.0467
     29 H9          0.0814   11.8574   11.1232 H         1 NAY         0.0467
     30 H10        -0.3709   18.9105   11.1352 H         1 NAY         0.2100
     31 H11         0.5482   16.9921   12.1629 H         1 NAY         0.0643
     32 H12        -1.6386   15.8721   12.5400 H         1 NAY         0.0647
     33 H13        -2.4910   17.3523   10.2488 H         1 NAY         0.2100
     34 H14        -2.1779   18.8497   12.0584 H         1 NAY         0.0643
     35 H15        -1.1941   19.0711   14.1491 H         1 NAY         0.2100
     36 H16        -4.1352   17.4878   12.6675 H         1 NAY         0.0584
     37 H17        -3.6920   18.7021   13.9148 H         1 NAY         0.0584
     38 H18        -3.0560   15.9155   13.9908 H         1 NAY         0.2095
@<TRIPOS>BOND
     1    1    4 1  
     2    1    3 ar 
     3    1    2 ar 
     4    4    6 1  
     5    4    5 2  
     6    6    7 1  
     7    7    8 1  
     8    8   14 1  
     9    8    9 1  
    10    9   10 am 
    11   10   12 2  
    12   10   11 1  
    13   14   13 1  
    14   14   15 1  
    15   15   17 1  
    16   15   16 1  
    17   17   19 1  
    18   17   18 1  
    19   19   20 1  
    20    6   21 1  
    21    6   22 1  
    22    7   23 1  
    23    7   24 1  
    24    8   25 1  
    25    9   26 1  
    26   11   27 1  
    27   11   28 1  
    28   11   29 1  
    29   13   30 1  
    30   14   31 1  
    31   15   32 1  
    32   16   33 1  
    33   17   34 1  
    34   18   35 1  
    35   19   36 1  
    36   19   37 1  
    37   20   38 1  
@<TRIPOS>SUBSTRUCTURE
     1 NAY         1

