### 
### Created by X-TOOL on Mon Sep 10 21:12:47 2018
### 

@<TRIPOS>MOLECULE
1f7b_ligand
   38    37     1     0     0
SMALL
GAST_HUCK


@<TRIPOS>ATOM
      1 C1          7.3730   12.4050   42.4780 C.2       1 NAV         0.0371
      2 O1A         6.3060   12.0780   43.0440 O.co2     1 NAV        -0.5688
      3 O1B         8.4900   11.9850   42.8520 O.co2     1 NAV        -0.5688
      4 C2          7.3480   13.2280   41.3100 C.3       1 NAV         0.0161
      5 C3          8.3700   12.7430   40.3130 C.3       1 NAV         0.0350
      6 C4          8.8450   13.1170   38.9570 C.2       1 NAV         0.1345
      7 C5          9.8180   12.1300   38.2890 C.3       1 NAV         0.1431
      8 N2          9.0270   11.0710   37.6200 N.am      1 NAV        -0.2643
      9 C10         9.5450    9.8350   37.2800 C.2       1 NAV         0.1752
     10 C11         8.7390    8.8900   36.4200 C.3       1 NAV         0.0258
     11 O10        10.7000    9.4520   37.6560 O.2       1 NAV        -0.3972
     12 O6         11.4610   13.8770   38.0980 O.3       1 NAV        -0.3844
     13 C6         10.7800   12.8590   37.3160 C.3       1 NAV         0.1222
     14 C7         11.8740   11.8730   36.8110 C.3       1 NAV         0.1133
     15 O7         12.4860   11.2100   37.9540 O.3       1 NAV        -0.3863
     16 C8         12.8950   12.6480   35.9360 C.3       1 NAV         0.1066
     17 O8         12.1730   13.5060   35.0050 O.3       1 NAV        -0.3869
     18 C9         13.8360   11.7340   35.1430 C.3       1 NAV         0.0727
     19 O9         13.0770   11.0730   34.1020 O.3       1 NAV        -0.3924
     20 O4          8.4300   14.1410   38.3730 O.2       1 NAV        -0.3889
     21 H1          7.5783   14.2662   41.5913 H         1 NAV         0.0456
     22 H2          6.3472   13.1846   40.8556 H         1 NAV         0.0456
     23 H3          8.0706   11.6943   40.1697 H         1 NAV         0.0513
     24 H4          9.2994   12.7820   40.9001 H         1 NAV         0.0513
     25 H5         10.4296   11.6591   39.0727 H         1 NAV         0.0818
     26 H6          8.0692   11.2598   37.4032 H         1 NAV         0.1884
     27 H7          9.3107    7.9645   36.2572 H         1 NAV         0.0467
     28 H8          8.5278    9.3658   35.4510 H         1 NAV         0.0467
     29 H9          7.7917    8.6516   36.9257 H         1 NAV         0.0467
     30 H10        12.0649   14.3525   37.5396 H         1 NAV         0.2102
     31 H11        10.2280   13.2981   36.4719 H         1 NAV         0.0670
     32 H12        11.3993   11.1045   36.1833 H         1 NAV         0.0648
     33 H13        12.8807   11.8610   38.5223 H         1 NAV         0.2100
     34 H14        13.5070   13.2758   36.6003 H         1 NAV         0.0643
     35 H15        12.7950   13.9822   34.4675 H         1 NAV         0.2100
     36 H16        14.2741   10.9817   35.8154 H         1 NAV         0.0584
     37 H17        14.6395   12.3337   34.6905 H         1 NAV         0.0584
     38 H18        12.6989   11.7256   33.5244 H         1 NAV         0.2095
@<TRIPOS>BOND
     1    1    2 ar 
     2    1    3 ar 
     3    1    4 1  
     4    4    5 1  
     5    5    6 1  
     6    6    7 1  
     7    6   20 2  
     8    7    8 1  
     9    7   13 1  
    10    8    9 am 
    11    9   10 1  
    12    9   11 2  
    13   13   12 1  
    14   13   14 1  
    15   14   15 1  
    16   14   16 1  
    17   16   17 1  
    18   16   18 1  
    19   18   19 1  
    20    4   21 1  
    21    4   22 1  
    22    5   23 1  
    23    5   24 1  
    24    7   25 1  
    25    8   26 1  
    26   10   27 1  
    27   10   28 1  
    28   10   29 1  
    29   12   30 1  
    30   13   31 1  
    31   14   32 1  
    32   15   33 1  
    33   16   34 1  
    34   17   35 1  
    35   18   36 1  
    36   18   37 1  
    37   19   38 1  
@<TRIPOS>SUBSTRUCTURE
     1 NAV         1

