### 
### Created by X-TOOL on Mon Sep 10 21:12:48 2018
### 

@<TRIPOS>MOLECULE
1f8b_ligand
   36    36     1     0     0
SMALL
GAST_HUCK


@<TRIPOS>ATOM
      1 C1         23.5900   19.8170   64.7510 C.2       1 DAN         0.0809
      2 C2         24.2140   18.8270   63.9990 C.2       1 DAN         0.1088
      3 C3         23.6030   17.6610   63.6220 C.2       1 DAN        -0.0276
      4 C4         24.2540   16.6260   62.6510 C.3       1 DAN         0.1003
      5 C5         25.7790   16.7630   62.6410 C.3       1 DAN         0.1064
      6 C6         26.1590   18.2850   62.5250 C.3       1 DAN         0.1321
      7 C7         27.7080   18.5040   62.6430 C.3       1 DAN         0.1154
      8 C8         28.0510   19.9440   62.4810 C.3       1 DAN         0.1068
      9 C9         29.5300   20.2110   62.8080 C.3       1 DAN         0.0727
     10 C10        27.0810   14.9330   61.6470 C.2       1 DAN         0.1734
     11 C11        27.5840   14.2060   60.4190 C.3       1 DAN         0.0257
     12 N5         26.3170   16.0110   61.4920 N.am      1 DAN        -0.2770
     13 O1A        24.1940   20.8920   64.9420 O.co2     1 DAN        -0.5623
     14 O1B        22.4530   19.6280   65.2260 O.co2     1 DAN        -0.5623
     15 O4         23.9190   15.3180   63.0330 O.3       1 DAN        -0.3807
     16 O6         25.5330   19.0520   63.6170 O.3       1 DAN        -0.3189
     17 O7         28.2370   18.1020   63.9050 O.3       1 DAN        -0.3861
     18 O8         27.7740   20.3100   61.1710 O.3       1 DAN        -0.3869
     19 O9         30.3970   19.5330   61.8950 O.3       1 DAN        -0.3924
     20 O10        27.3990   14.4990   62.7490 O.2       1 DAN        -0.3974
     21 H1         22.6126   17.4445   64.0197 H         1 DAN         0.0480
     22 H2         23.8736   16.8112   61.6356 H         1 DAN         0.0740
     23 H3         26.1941   16.3532   63.5736 H         1 DAN         0.0632
     24 H4         25.8077   18.6655   61.5546 H         1 DAN         0.0697
     25 H5         28.1968   17.9203   61.8491 H         1 DAN         0.0650
     26 H6         27.4277   20.5400   63.1638 H         1 DAN         0.0643
     27 H7         29.7399   19.8594   63.8289 H         1 DAN         0.0584
     28 H8         29.7206   21.2926   62.7462 H         1 DAN         0.0584
     29 H9         28.1957   13.3453   60.7273 H         1 DAN         0.0467
     30 H10        28.1942   14.8907   59.8118 H         1 DAN         0.0467
     31 H11        26.7278   13.8534   59.8252 H         1 DAN         0.0467
     32 H12        26.1005   16.3215   60.5664 H         1 DAN         0.1858
     33 H13        24.3220   14.7011   62.4334 H         1 DAN         0.2127
     34 H14        27.8218   18.6049   64.5958 H         1 DAN         0.2100
     35 H15        27.9869   21.2276   61.0480 H         1 DAN         0.2100
     36 H16        30.2237   19.8357   61.0114 H         1 DAN         0.2095
@<TRIPOS>BOND
     1    1   14 ar 
     2    1   13 ar 
     3    1    2 1  
     4    2   16 1  
     5    2    3 2  
     6    3    4 1  
     7    4   15 1  
     8    4    5 1  
     9    5   12 1  
    10    5    6 1  
    11    6   16 1  
    12    6    7 1  
    13    7   17 1  
    14    7    8 1  
    15    8   18 1  
    16    8    9 1  
    17    9   19 1  
    18   12   10 am 
    19   10   20 2  
    20   10   11 1  
    21    3   21 1  
    22    4   22 1  
    23    5   23 1  
    24    6   24 1  
    25    7   25 1  
    26    8   26 1  
    27    9   27 1  
    28    9   28 1  
    29   11   29 1  
    30   11   30 1  
    31   11   31 1  
    32   12   32 1  
    33   15   33 1  
    34   17   34 1  
    35   18   35 1  
    36   19   36 1  
@<TRIPOS>SUBSTRUCTURE
     1 DAN         1

