### 
### Created by X-TOOL on Mon Sep 10 21:12:48 2018
### 

@<TRIPOS>MOLECULE
1f8c_ligand
   38    38     1     0     0
SMALL
GAST_HUCK


@<TRIPOS>ATOM
      1 C1         23.6220   19.8430   64.7310 C.2       1 4AM         0.0810
      2 O1A        24.2570   20.9160   64.8860 O.co2     1 4AM        -0.5623
      3 O1B        22.4850   19.6690   65.2240 O.co2     1 4AM        -0.5623
      4 C2         24.2210   18.8310   63.9840 C.2       1 4AM         0.1116
      5 C3         23.5600   17.6820   63.5700 C.2       1 4AM        -0.0085
      6 C4         24.2010   16.6430   62.6040 C.3       1 4AM         0.0210
      7 N4         23.7390   15.3230   63.0390 N.4       1 4AM         0.2321
      8 C5         25.7310   16.7040   62.6890 C.3       1 4AM         0.1228
      9 N5         26.2920   15.9280   61.5680 N.am      1 4AM        -0.2741
     10 C10        26.9500   14.7930   61.7730 C.2       1 4AM         0.1735
     11 O10        27.1520   14.3300   62.8950 O.2       1 4AM        -0.3974
     12 C11        27.4640   14.0820   60.5440 C.3       1 4AM         0.0257
     13 C6         26.1990   18.1920   62.5950 C.3       1 4AM         0.1349
     14 O6         25.5900   18.9820   63.6860 O.3       1 4AM        -0.3186
     15 C7         27.7650   18.3640   62.7240 C.3       1 4AM         0.1156
     16 O7         28.1620   17.9130   64.0430 O.3       1 4AM        -0.3861
     17 C8         28.1250   19.8500   62.5530 C.3       1 4AM         0.1068
     18 O8         27.7280   20.2830   61.2890 O.3       1 4AM        -0.3869
     19 C9         29.6270   20.1300   62.7320 C.3       1 4AM         0.0727
     20 O9         30.4300   19.4150   61.8240 O.3       1 4AM        -0.3924
     21 H1         22.5508   17.5001   63.9365 H         1 4AM         0.0510
     22 H2         23.8808   16.8388   61.5700 H         1 4AM         0.0996
     23 H3         22.7333   15.2837   62.9828 H         1 4AM         0.2008
     24 H4         24.0289   15.1624   63.9910 H         1 4AM         0.2008
     25 H5         24.1367   14.6144   62.4426 H         1 4AM         0.2008
     26 H6         26.0683   16.2730   63.6432 H         1 4AM         0.0664
     27 H7         26.1745   16.2636   60.6333 H         1 4AM         0.1859
     28 H8         27.9872   13.1622   60.8445 H         1 4AM         0.0467
     29 H9         28.1605   14.7402   60.0040 H         1 4AM         0.0467
     30 H10        26.6188   13.8256   59.8883 H         1 4AM         0.0467
     31 H11        25.8755   18.5947   61.6238 H         1 4AM         0.0698
     32 H12        28.2751   17.7668   61.9539 H         1 4AM         0.0650
     33 H13        27.7077   18.4252   64.7016 H         1 4AM         0.2100
     34 H14        27.5762   20.4239   63.3141 H         1 4AM         0.0643
     35 H15        27.8916   21.2154   61.2090 H         1 4AM         0.2100
     36 H16        29.9171   19.8475   63.7547 H         1 4AM         0.0584
     37 H17        29.8034   21.2057   62.5847 H         1 4AM         0.0584
     38 H18        30.1941   19.6566   60.9361 H         1 4AM         0.2095
@<TRIPOS>BOND
     1    4    1 1  
     2    1    3 ar 
     3    1    2 ar 
     4    4   14 1  
     5    4    5 2  
     6    5    6 1  
     7    6    8 1  
     8    6    7 1  
     9    8   13 1  
    10    8    9 1  
    11    9   10 am 
    12   10   12 1  
    13   10   11 2  
    14   13   15 1  
    15   13   14 1  
    16   15   17 1  
    17   15   16 1  
    18   17   19 1  
    19   17   18 1  
    20   19   20 1  
    21    5   21 1  
    22    6   22 1  
    23    7   23 1  
    24    7   24 1  
    25    7   25 1  
    26    8   26 1  
    27    9   27 1  
    28   12   28 1  
    29   12   29 1  
    30   12   30 1  
    31   13   31 1  
    32   15   32 1  
    33   16   33 1  
    34   17   34 1  
    35   18   35 1  
    36   19   36 1  
    37   19   37 1  
    38   20   38 1  
@<TRIPOS>SUBSTRUCTURE
     1 4AM         1

