### 
### Created by X-TOOL on Mon Sep 10 21:12:48 2018
### 

@<TRIPOS>MOLECULE
1f8d_ligand
   38    38     1     0     0
SMALL
GAST_HUCK


@<TRIPOS>ATOM
      1 C1         23.5140   19.7240   64.7280 C.2       1 9AM         0.0809
      2 C2         24.0900   18.7100   63.9710 C.2       1 9AM         0.1088
      3 C3         23.4920   17.5310   63.6410 C.2       1 9AM        -0.0276
      4 C4         24.1140   16.5690   62.5990 C.3       1 9AM         0.1003
      5 C5         25.6390   16.6600   62.6260 C.3       1 9AM         0.1064
      6 C6         26.0380   18.1480   62.5020 C.3       1 9AM         0.1322
      7 C7         27.5880   18.4190   62.6030 C.3       1 9AM         0.1183
      8 C8         27.8270   19.8870   62.2920 C.3       1 9AM         0.1232
      9 C9         29.1570   20.4070   62.8100 C.3       1 9AM        -0.0062
     10 C10        27.0300   14.8540   61.6660 C.2       1 9AM         0.1734
     11 C11        27.5130   14.1200   60.4010 C.3       1 9AM         0.0257
     12 N5         26.1980   15.8800   61.5060 N.am      1 9AM        -0.2770
     13 O1A        24.2170   20.7420   64.9230 O.co2     1 9AM        -0.5623
     14 O1B        22.3550   19.6200   65.1890 O.co2     1 9AM        -0.5623
     15 O4         23.7050   15.2960   62.9580 O.3       1 9AM        -0.3807
     16 O6         25.4090   18.9120   63.5900 O.3       1 9AM        -0.3189
     17 O7         27.9620   18.1150   63.9680 O.3       1 9AM        -0.3860
     18 O8         27.7890   20.0350   60.9250 O.3       1 9AM        -0.3838
     19 N9         30.3180   19.6480   62.2720 N.4       1 9AM         0.2204
     20 O10        27.4240   14.4780   62.7700 O.2       1 9AM        -0.3974
     21 H1         22.5536   17.2585   64.1218 H         1 9AM         0.0480
     22 H2         23.7512   16.8158   61.5903 H         1 9AM         0.0740
     23 H3         26.0186   16.2554   63.5758 H         1 9AM         0.0632
     24 H4         25.6781   18.5193   61.5311 H         1 9AM         0.0697
     25 H5         28.1481   17.7858   61.8992 H         1 9AM         0.0652
     26 H6         27.0209   20.4795   62.7493 H         1 9AM         0.0674
     27 H7         29.1627   20.3281   63.9071 H         1 9AM         0.0840
     28 H8         29.2604   21.4624   62.5177 H         1 9AM         0.0840
     29 H9         28.1896   13.3015   60.6879 H         1 9AM         0.0467
     30 H10        28.0477   14.8263   59.7489 H         1 9AM         0.0467
     31 H11        26.6467   13.7079   59.8629 H         1 9AM         0.0467
     32 H12        25.9374   16.1363   60.5752 H         1 9AM         0.1858
     33 H13        22.7562   15.2528   62.9407 H         1 9AM         0.2127
     34 H14        27.4767   18.6768   64.5607 H         1 9AM         0.2100
     35 H15        27.9360   20.9467   60.7021 H         1 9AM         0.2101
     36 H16        31.1722   20.0316   62.6452 H         1 9AM         0.1995
     37 H17        30.3290   19.7188   61.2666 H         1 9AM         0.1995
     38 H18        30.2395   18.6794   62.5398 H         1 9AM         0.1995
@<TRIPOS>BOND
     1    1   14 ar 
     2    1   13 ar 
     3    1    2 1  
     4    2   16 1  
     5    2    3 2  
     6    3    4 1  
     7    4   15 1  
     8    4    5 1  
     9    5   12 1  
    10    5    6 1  
    11    6   16 1  
    12    6    7 1  
    13    7   17 1  
    14    7    8 1  
    15    8   18 1  
    16    8    9 1  
    17    9   19 1  
    18   12   10 am 
    19   10   20 2  
    20   10   11 1  
    21    3   21 1  
    22    4   22 1  
    23    5   23 1  
    24    6   24 1  
    25    7   25 1  
    26    8   26 1  
    27    9   27 1  
    28    9   28 1  
    29   11   29 1  
    30   11   30 1  
    31   11   31 1  
    32   12   32 1  
    33   15   33 1  
    34   17   34 1  
    35   18   35 1  
    36   19   36 1  
    37   19   37 1  
    38   19   38 1  
@<TRIPOS>SUBSTRUCTURE
     1 9AM         1

