### 
### Created by X-TOOL on Mon Sep 10 21:12:48 2018
### 

@<TRIPOS>MOLECULE
1f8e_ligand
   40    40     1     0     0
SMALL
GAST_HUCK


@<TRIPOS>ATOM
      1 C1         23.5370   19.8410   64.7380 C.2       1 49A         0.0810
      2 C2         24.1250   18.7730   64.0580 C.2       1 49A         0.1116
      3 C3         23.4520   17.6490   63.6220 C.2       1 49A        -0.0085
      4 C4         24.1130   16.6520   62.6490 C.3       1 49A         0.0210
      5 C5         25.6290   16.6840   62.7420 C.3       1 49A         0.1228
      6 C6         26.0790   18.1690   62.6850 C.3       1 49A         0.1351
      7 C7         27.6420   18.3860   62.8000 C.3       1 49A         0.1184
      8 C8         27.9270   19.8710   62.5510 C.3       1 49A         0.1232
      9 C9         29.3330   20.2820   62.9920 C.3       1 49A        -0.0062
     10 C10        26.9630   14.8260   61.8030 C.2       1 49A         0.1735
     11 C11        27.5060   14.1840   60.5530 C.3       1 49A         0.0257
     12 N5         26.2370   15.9270   61.6270 N.am      1 49A        -0.2741
     13 O1A        24.2410   20.8580   64.9270 O.co2     1 49A        -0.5623
     14 O1B        22.3570   19.7650   65.1340 O.co2     1 49A        -0.5623
     15 N4         23.6780   15.2990   63.0060 N.4       1 49A         0.2321
     16 O6         25.4800   18.8980   63.7870 O.3       1 49A        -0.3186
     17 O7         28.1110   17.9780   64.1020 O.3       1 49A        -0.3860
     18 O8         27.7800   20.1390   61.1890 O.3       1 49A        -0.3838
     19 N9         30.3930   19.6150   62.1900 N.4       1 49A         0.2204
     20 O10        27.1870   14.3390   62.9110 O.2       1 49A        -0.3974
     21 H1         22.4373   17.4635   63.9712 H         1 49A         0.0510
     22 H2         23.8045   16.8905   61.6204 H         1 49A         0.0996
     23 H3         25.9479   16.2377   63.6955 H         1 49A         0.0664
     24 H4         25.7348   18.5931   61.7302 H         1 49A         0.0698
     25 H5         28.1531   17.7840   62.0343 H         1 49A         0.0652
     26 H6         27.1961   20.4663   63.1178 H         1 49A         0.0674
     27 H7         29.4658   20.0102   64.0496 H         1 49A         0.0840
     28 H8         29.4355   21.3712   62.8777 H         1 49A         0.0840
     29 H9         28.0852   13.2886   60.8226 H         1 49A         0.0467
     30 H10        28.1576   14.8977   60.0276 H         1 49A         0.0467
     31 H11        26.6717   13.8969   59.8961 H         1 49A         0.0467
     32 H12        26.0956   16.2589   60.6944 H         1 49A         0.1859
     33 H13        22.6728   15.2445   62.9538 H         1 49A         0.2008
     34 H14        23.9777   15.0864   63.9446 H         1 49A         0.2008
     35 H15        24.0841   14.6354   62.3651 H         1 49A         0.2008
     36 H16        27.6761   18.4945   64.7702 H         1 49A         0.2100
     37 H17        27.9554   21.0586   61.0276 H         1 49A         0.2101
     38 H18        31.2989   19.9149   62.5149 H         1 49A         0.1995
     39 H19        30.2855   19.8626   61.2188 H         1 49A         0.1995
     40 H20        30.3132   18.6154   62.2927 H         1 49A         0.1995
@<TRIPOS>BOND
     1    1   14 ar 
     2    1   13 ar 
     3    1    2 1  
     4    2   16 1  
     5    2    3 2  
     6    3    4 1  
     7    4   15 1  
     8    4    5 1  
     9    5   12 1  
    10    5    6 1  
    11    6   16 1  
    12    6    7 1  
    13    7   17 1  
    14    7    8 1  
    15    8   18 1  
    16    8    9 1  
    17    9   19 1  
    18   12   10 am 
    19   10   20 2  
    20   10   11 1  
    21    3   21 1  
    22    4   22 1  
    23    5   23 1  
    24    6   24 1  
    25    7   25 1  
    26    8   26 1  
    27    9   27 1  
    28    9   28 1  
    29   11   29 1  
    30   11   30 1  
    31   11   31 1  
    32   12   32 1  
    33   15   33 1  
    34   15   34 1  
    35   15   35 1  
    36   17   36 1  
    37   18   37 1  
    38   19   38 1  
    39   19   39 1  
    40   19   40 1  
@<TRIPOS>SUBSTRUCTURE
     1 49A         1

