### 
### Created by X-TOOL on Mon Sep 10 21:12:48 2018
### 

@<TRIPOS>MOLECULE
1f92_ligand
   93    95     1     0     0
SMALL
GAST_HUCK


@<TRIPOS>ATOM
      1 N          31.6590    9.9960   27.9900 N.am      1 UKP        -0.2260
      2 CA         30.2070    9.9320   28.0070 C.3       1 UKP         0.1355
      3 CX         32.6280    4.2320   27.7640 C.cat     1 UKP         0.2340
      4 O          30.3990    9.0980   30.1770 O.2       1 UKP        -0.3946
      5 CB         29.7540    8.7560   27.1090 C.3       1 UKP         0.0179
      6 CG1        30.1480    7.0900   27.7780 C.ar      1 UKP        -0.0390
      7 CD1        31.2820    6.3160   27.4730 C.ar      1 UKP        -0.0549
      8 CE1        31.4950    5.0290   28.0620 C.ar      1 UKP         0.0192
      9 CZ         30.4890    4.5810   28.9770 C.ar      1 UKP        -0.0635
     10 CE2        29.3580    5.3590   29.2780 C.ar      1 UKP        -0.0686
     11 CD2        29.1970    6.5990   28.6780 C.ar      1 UKP        -0.0601
     12 NX1        32.5900    2.9900   27.7940 N.pl3     1 UKP        -0.2722
     13 NX2        33.8070    4.6630   27.4200 N.pl3     1 UKP        -0.2722
     14 C          29.6840    9.7800   29.4370 C.2       1 UKP         0.2024
     15 C6         31.5900   12.6370   28.0800 C.ar      1 UKP         0.1039
     16 C7         31.7500   12.8130   29.4820 C.ar      1 UKP        -0.0274
     17 C8         31.0930   13.8770   30.1310 C.ar      1 UKP        -0.0637
     18 C9         30.2750   14.7770   29.4330 C.ar      1 UKP        -0.0538
     19 C10        30.1240   14.5950   28.0480 C.ar      1 UKP        -0.0637
     20 C11        30.7610   13.5460   27.3510 C.ar      1 UKP        -0.0274
     21 C12        32.6300   11.8780   30.3600 C.3       1 UKP        -0.0143
     22 C13        32.0080   11.3980   31.7110 C.3       1 UKP        -0.0530
     23 C14        33.9700   12.5970   30.6480 C.3       1 UKP        -0.0530
     24 C15        30.4990   13.4630   25.8130 C.3       1 UKP        -0.0143
     25 C16        29.2990   14.3090   25.2880 C.3       1 UKP        -0.0530
     26 C17        31.7960   13.8740   25.0610 C.3       1 UKP        -0.0530
     27 C18        29.5630   15.9340   30.1640 C.3       1 UKP        -0.0162
     28 C19        30.4990   16.5520   31.2360 C.3       1 UKP        -0.0530
     29 C20        28.2440   15.4270   30.8150 C.3       1 UKP        -0.0530
     30 S          32.4540   11.2360   27.2800 S.o2      1 UKP         0.0625
     31 OS1        33.8460   11.1910   27.6990 O.2       1 UKP        -0.1532
     32 OS2        32.2220   11.1400   25.8530 O.2       1 UKP        -0.1532
     33 N1         28.5060   10.3520   29.8970 N.am      1 UKP        -0.2677
     34 C1         28.1020   10.1310   31.2920 C.3       1 UKP         0.0543
     35 C2         27.8850   11.5420   31.8800 C.3       1 UKP         0.0543
     36 N2         26.6970   12.1140   31.2380 N.am      1 UKP        -0.2692
     37 C4         26.9930   12.1820   29.7220 C.3       1 UKP         0.0543
     38 C5         27.3050   10.9740   29.0810 C.3       1 UKP         0.0543
     39 C21        25.8310   12.9190   31.9340 C.2       1 UKP         0.1837
     40 O1         25.0310   13.6610   31.3740 O.2       1 UKP        -0.3967
     41 C22        25.7870   12.9630   33.4550 C.3       1 UKP         0.0773
     42 C23        24.7450   13.9910   33.9940 C.3       1 UKP        -0.0184
     43 N24        25.0050   14.3210   35.4170 N.4       1 UKP         0.2202
     44 H1         32.1846    9.2638   28.4231 H         1 UKP         0.1705
     45 H2         29.8057   10.8680   27.5913 H         1 UKP         0.0776
     46 H3         30.2486    8.8595   26.1319 H         1 UKP         0.0469
     47 H4         28.6641    8.8243   26.9774 H         1 UKP         0.0469
     48 H5         32.0137    6.7042   26.7737 H         1 UKP         0.0556
     49 H6         30.6031    3.6131   29.4516 H         1 UKP         0.0559
     50 H7         28.6146    4.9915   29.9761 H         1 UKP         0.0599
     51 H8         28.3222    7.1956   28.9098 H         1 UKP         0.0557
     52 H9         33.4341    2.4434   27.5712 H         1 UKP         0.3181
     53 H10        31.7144    2.5074   28.0416 H         1 UKP         0.3181
     54 H11        33.9861    5.6751   27.3532 H         1 UKP         0.3181
     55 H12        34.5609    3.9920   27.2146 H         1 UKP         0.3181
     56 H13        31.2235   14.0034   31.1997 H         1 UKP         0.0439
     57 H14        29.4962   15.2845   27.4953 H         1 UKP         0.0439
     58 H15        32.8370   10.9767   29.7644 H         1 UKP         0.0454
     59 H16        32.7246   10.7477   32.2340 H         1 UKP         0.0254
     60 H17        31.0831   10.8375   31.5102 H         1 UKP         0.0254
     61 H18        31.7786   12.2710   32.3397 H         1 UKP         0.0254
     62 H19        34.4140   12.9379   29.7011 H         1 UKP         0.0254
     63 H20        34.6601   11.9005   31.1467 H         1 UKP         0.0254
     64 H21        33.7883   13.4636   31.3007 H         1 UKP         0.0254
     65 H22        30.2796   12.4113   25.5769 H         1 UKP         0.0454
     66 H23        29.2060   14.1776   24.1998 H         1 UKP         0.0254
     67 H24        29.4718   15.3712   25.5155 H         1 UKP         0.0254
     68 H25        28.3726   13.9750   25.7781 H         1 UKP         0.0254
     69 H26        32.6408   13.2758   25.4332 H         1 UKP         0.0254
     70 H27        31.9979   14.9413   25.2345 H         1 UKP         0.0254
     71 H28        31.6672   13.6956   23.9832 H         1 UKP         0.0254
     72 H29        29.3130   16.7125   29.4282 H         1 UKP         0.0454
     73 H30        29.9777   17.3744   31.7477 H         1 UKP         0.0254
     74 H31        31.4070   16.9392   30.7507 H         1 UKP         0.0254
     75 H32        30.7759   15.7806   31.9697 H         1 UKP         0.0254
     76 H33        27.5955   14.9933   30.0395 H         1 UKP         0.0254
     77 H34        27.7259   16.2689   31.2974 H         1 UKP         0.0254
     78 H35        28.4779   14.6603   31.5682 H         1 UKP         0.0254
     79 H36        28.8928    9.6011   31.8431 H         1 UKP         0.0542
     80 H37        27.1705    9.5476   31.3359 H         1 UKP         0.0542
     81 H38        28.7624   12.1727   31.6743 H         1 UKP         0.0542
     82 H39        27.7281   11.4751   32.9667 H         1 UKP         0.0542
     83 H40        27.8451   12.8630   29.5801 H         1 UKP         0.0542
     84 H41        26.1033   12.5999   29.2282 H         1 UKP         0.0542
     85 H42        26.4386   10.2964   29.0980 H         1 UKP         0.0542
     86 H43        27.6051   11.1596   28.0391 H         1 UKP         0.0542
     87 H44        26.7833   13.2420   33.8286 H         1 UKP         0.0556
     88 H45        25.5218   11.9632   33.8291 H         1 UKP         0.0556
     89 H46        23.7366   13.5610   33.9037 H         1 UKP         0.0839
     90 H47        24.8060   14.9116   33.3951 H         1 UKP         0.0839
     91 H48        24.3187   14.9855   35.7386 H         1 UKP         0.1996
     92 H49        25.9264   14.7197   35.5065 H         1 UKP         0.1996
     93 H50        24.9465   13.4820   35.9726 H         1 UKP         0.1996
@<TRIPOS>BOND
     1    2    1 1  
     2    1   30 am 
     3    5    2 1  
     4    2   14 1  
     5    8    3 1  
     6    3   12 ar 
     7    3   13 ar 
     8   14    4 2  
     9    6    7 ar 
    10    6   11 ar 
    11    7    8 ar 
    12    8    9 ar 
    13   10    9 ar 
    14   11   10 ar 
    15   14   33 am 
    16   15   16 ar 
    17   15   20 ar 
    18   30   15 1  
    19   16   17 ar 
    20   16   21 1  
    21   17   18 ar 
    22   19   18 ar 
    23   18   27 1  
    24   20   19 ar 
    25   20   24 1  
    26   21   22 1  
    27   21   23 1  
    28   24   25 1  
    29   24   26 1  
    30   27   28 1  
    31   27   29 1  
    32   30   31 2  
    33   30   32 2  
    34   33   34 1  
    35   33   38 1  
    36   34   35 1  
    37   35   36 1  
    38   37   36 1  
    39   36   39 am 
    40   38   37 1  
    41   39   40 2  
    42   39   41 1  
    43   41   42 1  
    44   42   43 1  
    45    5    6 1  
    46    1   44 1  
    47    2   45 1  
    48    5   46 1  
    49    5   47 1  
    50    7   48 1  
    51    9   49 1  
    52   10   50 1  
    53   11   51 1  
    54   12   52 1  
    55   12   53 1  
    56   13   54 1  
    57   13   55 1  
    58   17   56 1  
    59   19   57 1  
    60   21   58 1  
    61   22   59 1  
    62   22   60 1  
    63   22   61 1  
    64   23   62 1  
    65   23   63 1  
    66   23   64 1  
    67   24   65 1  
    68   25   66 1  
    69   25   67 1  
    70   25   68 1  
    71   26   69 1  
    72   26   70 1  
    73   26   71 1  
    74   27   72 1  
    75   28   73 1  
    76   28   74 1  
    77   28   75 1  
    78   29   76 1  
    79   29   77 1  
    80   29   78 1  
    81   34   79 1  
    82   34   80 1  
    83   35   81 1  
    84   35   82 1  
    85   37   83 1  
    86   37   84 1  
    87   38   85 1  
    88   38   86 1  
    89   41   87 1  
    90   41   88 1  
    91   42   89 1  
    92   42   90 1  
    93   43   91 1  
    94   43   92 1  
    95   43   93 1  
@<TRIPOS>SUBSTRUCTURE
     1 UKP         1

