### 
### Created by X-TOOL on Mon Sep 10 21:12:48 2018
### 

@<TRIPOS>MOLECULE
1f9e_ligand
   73    73     1     0     0
SMALL
GAST_HUCK


@<TRIPOS>ATOM
      1 C1         45.2780   75.0660    9.4630 C.2       1 PHQ         0.3240
      2 O1         46.3970   74.5280    9.3240 O.2       1 PHQ        -0.3773
      3 O2         44.7620   76.0360    8.6140 O.3       1 PHQ        -0.2506
      4 C2         45.4340   76.5380    7.4500 C.3       1 PHQ         0.1113
      5 C3         44.4790   77.5800    6.9710 C.ar      1 PHQ        -0.0130
      6 C4         44.5120   78.9060    7.5470 C.ar      1 PHQ        -0.0578
      7 C5         43.5720   79.9090    7.1030 C.ar      1 PHQ        -0.0685
      8 C6         42.5870   79.6000    6.0820 C.ar      1 PHQ        -0.0687
      9 C7         42.5410   78.2730    5.4980 C.ar      1 PHQ        -0.0685
     10 C8         43.4870   77.2660    5.9480 C.ar      1 PHQ        -0.0578
     11 N          44.4920   74.8110   10.4260 N.am      1 ASP        -0.2395
     12 CA         44.8320   73.9130   11.4860 C.3       1 ASP         0.1441
     13 C          43.9490   72.6900   11.6070 C.3       1 ASP         0.0406
     14 O          45.6290   75.8590   12.7570 O.2       1 ASP        -0.3943
     15 CB         44.7850   74.9420   12.6710 C.2       1 ASP         0.2056
     16 CG         44.0910   71.6820   10.4620 C.2       1 ASP         0.0393
     17 OD1        45.2380   71.0610   10.2850 O.co2     1 ASP        -0.5688
     18 OD2        43.0770   71.4300    9.6890 O.co2     1 ASP        -0.5688
     19 N          43.7260   74.8720   13.4620 N.am      1 GLU        -0.2635
     20 CA         43.4300   75.8130   14.5910 C.3       1 GLU         0.1325
     21 C          42.6690   75.0020   15.6720 C.2       1 GLU         0.2040
     22 O          41.8180   74.1370   15.3600 O.2       1 GLU        -0.3944
     23 CB         42.5470   77.0250   14.1490 C.3       1 GLU        -0.0008
     24 CG         43.0260   77.8030   12.9000 C.3       1 GLU         0.0044
     25 CD         42.8010   79.3510   12.8770 C.2       1 GLU         0.0350
     26 OE1        41.8220   79.9120   13.5300 O.co2     1 GLU        -0.5690
     27 OE2        43.6120   80.1010   12.1720 O.co2     1 GLU        -0.5690
     28 N          42.9860   75.2650   16.9380 N.am      1 VAL        -0.2635
     29 CA         42.3380   74.5340   18.0610 C.3       1 VAL         0.1333
     30 C          41.1480   75.2660   18.5190 C.2       1 VAL         0.2043
     31 O          41.0660   76.4910   18.4360 O.2       1 VAL        -0.3944
     32 CB         43.4220   74.2260   19.1040 C.3       1 VAL        -0.0063
     33 CG1        44.6010   73.4440   18.5220 C.3       1 VAL        -0.0584
     34 CG2        44.0310   75.4840   19.7280 C.3       1 VAL        -0.0584
     35 N          40.2530   74.4580   18.9150 N.am      1 ASA        -0.2634
     36 CA         39.0570   74.9240   19.4850 C.3       1 ASA         0.1241
     37 C          39.2290   74.7630   21.0110 C.2       1 ASA         0.1262
     38 O          38.3910   75.3030   21.8490 O.2       1 ASA        -0.3723
     39 CB         37.8750   74.0650   18.9970 C.3       1 ASA         0.0393
     40 CG         37.1120   74.6560   17.8010 C.2       1 ASA         0.0393
     41 OD1        37.3210   75.8730   17.4340 O.co2     1 ASA        -0.5688
     42 OD2        36.2550   73.9310   17.1590 O.co2     1 ASA        -0.5688
     43 H1         45.5754   75.7483    6.6975 H         1 PHQ         0.0776
     44 H2         46.4089   76.9770    7.7086 H         1 PHQ         0.0776
     45 H3         45.2417   79.1472    8.3115 H         1 PHQ         0.0557
     46 H4         43.6023   80.9022    7.5364 H         1 PHQ         0.0599
     47 H5         41.8865   80.3605    5.7564 H         1 PHQ         0.0559
     48 H6         41.8092   78.0352    4.7345 H         1 PHQ         0.0599
     49 H7         43.4554   76.2709    5.5192 H         1 PHQ         0.0557
     50 H8         43.5970   75.2568   10.4446 H         1 ASP         0.1900
     51 H9         45.8599   73.5444   11.3540 H         1 ASP         0.0818
     52 H10        42.9019   73.0253   11.6403 H         1 ASP         0.0478
     53 H11        44.2001   72.1777   12.5475 H         1 ASP         0.0478
     54 H12        43.0725   74.1340   13.2934 H         1 GLU         0.1883
     55 H13        44.3761   76.1938   15.0032 H         1 GLU         0.0801
     56 H14        42.5053   77.7334   14.9894 H         1 GLU         0.0330
     57 H15        41.5363   76.6446   13.9396 H         1 GLU         0.0330
     58 H16        42.5017   77.3819   12.0295 H         1 GLU         0.0433
     59 H17        44.1069   77.6266   12.7976 H         1 GLU         0.0433
     60 H18        43.6711   75.9655   17.1378 H         1 VAL         0.1883
     61 H19        41.9788   73.5663   17.6809 H         1 VAL         0.0802
     62 H20        42.9539   73.6263   19.8985 H         1 VAL         0.0343
     63 H21        45.3413   73.2542   19.3131 H         1 VAL         0.0234
     64 H22        45.0675   74.0297   17.7162 H         1 VAL         0.0234
     65 H23        44.2420   72.4858   18.1183 H         1 VAL         0.0234
     66 H24        43.2320   76.0980   20.1692 H         1 VAL         0.0234
     67 H25        44.5520   76.0631   18.9514 H         1 VAL         0.0234
     68 H26        44.7465   75.1950   20.5119 H         1 VAL         0.0234
     69 H27        40.4018   73.4737   18.8196 H         1 ASA         0.1886
     70 H28        38.8862   75.9784   19.2224 H         1 ASA         0.0809
     71 H29        40.0689   74.1856   21.3947 H         1 ASA         0.1375
     72 H30        37.1681   73.9465   19.8314 H         1 ASA         0.0479
     73 H31        38.2643   73.0790   18.7034 H         1 ASA         0.0479
@<TRIPOS>BOND
     1    1    2 2  
     2    1    3 1  
     3    1   11 am 
     4    3    4 1  
     5    4    5 1  
     6    5    6 ar 
     7    5   10 ar 
     8    6    7 ar 
     9    7    8 ar 
    10    8    9 ar 
    11    9   10 ar 
    12   11   12 1  
    13   12   13 1  
    14   12   15 1  
    15   13   16 1  
    16   15   14 2  
    17   15   19 am 
    18   16   17 ar 
    19   16   18 ar 
    20   19   20 1  
    21   20   21 1  
    22   20   23 1  
    23   21   22 2  
    24   21   28 am 
    25   23   24 1  
    26   24   25 1  
    27   25   26 ar 
    28   25   27 ar 
    29   28   29 1  
    30   29   30 1  
    31   29   32 1  
    32   30   31 2  
    33   30   35 am 
    34   32   33 1  
    35   32   34 1  
    36   35   36 1  
    37   36   37 1  
    38   36   39 1  
    39   37   38 2  
    40   39   40 1  
    41   40   41 ar 
    42   40   42 ar 
    43    4   43 1  
    44    4   44 1  
    45    6   45 1  
    46    7   46 1  
    47    8   47 1  
    48    9   48 1  
    49   10   49 1  
    50   11   50 1  
    51   12   51 1  
    52   13   52 1  
    53   13   53 1  
    54   19   54 1  
    55   20   55 1  
    56   23   56 1  
    57   23   57 1  
    58   24   58 1  
    59   24   59 1  
    60   28   60 1  
    61   29   61 1  
    62   32   62 1  
    63   33   63 1  
    64   33   64 1  
    65   33   65 1  
    66   34   66 1  
    67   34   67 1  
    68   34   68 1  
    69   35   69 1  
    70   36   70 1  
    71   37   71 1  
    72   39   72 1  
    73   39   73 1  
@<TRIPOS>SUBSTRUCTURE
     1 PHQ         1

