### 
### Created by X-TOOL on Mon Sep 10 21:12:48 2018
### 

@<TRIPOS>MOLECULE
1f9g_ligand
   20    20     1     0     0
SMALL
GAST_HUCK


@<TRIPOS>ATOM
      1 C1          9.2520  -10.8070   32.3000 C.2       1 ASC         0.2539
      2 C2         10.3500   -9.7830   32.5730 C.2       1 ASC         0.1683
      3 C3          9.8060   -8.5820   32.8430 C.2       1 ASC         0.1431
      4 C4          8.3050   -8.7370   32.7540 C.3       1 ASC         0.1757
      5 C5          7.5930   -7.6330   31.9260 C.3       1 ASC         0.1216
      6 C6          6.1170   -7.6770   31.4470 C.3       1 ASC         0.0751
      7 O1          9.3290  -12.0140   32.0380 O.2       1 ASC        -0.3847
      8 O2         11.7040   -9.9980   32.5670 O.3       1 ASC        -0.3616
      9 O3         10.2070   -7.6800   33.6140 O.3       1 ASC        -0.3275
     10 O4          8.0370  -10.1470   32.4120 O.3       1 ASC        -0.2611
     11 O5          7.8940   -6.3130   32.4420 O.3       1 ASC        -0.3841
     12 O6          6.2230   -7.0890   30.0690 O.3       1 ASC        -0.3922
     13 H1          7.9179   -8.6010   33.7746 H         1 ASC         0.0885
     14 H2          8.1394   -7.6890   30.9730 H         1 ASC         0.0673
     15 H3          5.4679   -7.0680   32.0933 H         1 ASC         0.0586
     16 H4          5.7373   -8.7089   31.4139 H         1 ASC         0.0586
     17 H5         11.9223  -10.6534   33.2191 H         1 ASC         0.2284
     18 H6          9.6014   -6.9485   33.5859 H         1 ASC         0.2522
     19 H7          8.8315   -6.1648   32.4020 H         1 ASC         0.2103
     20 H8          5.3617   -7.0648   29.6691 H         1 ASC         0.2095
@<TRIPOS>BOND
     1    1   10 1  
     2    1    7 2  
     3    1    2 1  
     4    2    8 1  
     5    2    3 2  
     6    3    9 1  
     7    3    4 1  
     8    4   10 1  
     9    4    5 1  
    10    5   11 1  
    11    5    6 1  
    12    6   12 1  
    13    4   13 1  
    14    5   14 1  
    15    6   15 1  
    16    6   16 1  
    17    8   17 1  
    18    9   18 1  
    19   11   19 1  
    20   12   20 1  
@<TRIPOS>SUBSTRUCTURE
     1 ASC         1

