### 
### Created by X-TOOL on Mon Sep 10 21:12:46 2018
### 

@<TRIPOS>MOLECULE
1fax_ligand
   62    65     1     0     0
SMALL
GAST_HUCK


@<TRIPOS>ATOM
      1 C12         7.3860    8.0220   24.6130 C.ar      1 DX9        -0.0547
      2 C13         6.8510    8.5690   23.4630 C.ar      1 DX9        -0.0386
      3 C11         7.6620    9.4000   22.6650 C.ar      1 DX9        -0.0564
      4 C10         8.9470    9.7530   23.0930 C.ar      1 DX9        -0.0567
      5 C7          9.4380    9.2310   24.2950 C.ar      1 DX9        -0.0222
      6 C6         10.7200    9.5510   24.7430 C.ar      1 DX9        -0.0568
      7 C5         11.1950    8.9950   25.9340 C.ar      1 DX9        -0.0582
      8 C4         10.4250    8.0720   26.6620 C.ar      1 DX9         0.0240
      9 C9          9.1340    7.8410   26.2190 C.ar      1 DX9        -0.0525
     10 C8          8.6490    8.3480   25.0430 C.ar      1 DX9        -0.0259
     11 C2         10.9090    7.3820   27.7650 C.cat     1 DX9         0.2351
     12 N2         10.1050    6.5260   28.4000 N.pl3     1 DX9        -0.2722
     13 N1         12.1710    7.5740   28.1700 N.pl3     1 DX9        -0.2722
     14 C14         5.4000    8.2470   23.1480 C.3       1 DX9         0.0036
     15 C22         3.5350    7.7930   21.6200 C.2       1 DX9         0.0497
     16 O23         2.9820    6.7090   21.8260 O.co2     1 DX9        -0.5662
     17 O24         2.9120    8.8320   21.3890 O.co2     1 DX9        -0.5662
     18 C15         5.0580    7.9040   21.7030 C.3       1 DX9         0.0496
     19 N28         7.7040    1.8270   17.2590 N.pl3     1 DX9        -0.2482
     20 C27         7.4520    2.9440   18.1600 C.3       1 DX9         0.1191
     21 C26         8.7690    3.1530   18.8680 C.3       1 DX9         0.1247
     22 C30         9.3440    1.7900   18.7950 C.3       1 DX9         0.0234
     23 C29         8.9230    1.0600   17.5440 C.3       1 DX9         0.0918
     24 C31         6.8740    1.5560   16.2570 C.cat     1 DX9         0.2051
     25 N32         7.0060    0.4220   15.5920 N.pl3     1 DX9        -0.2763
     26 C33         5.7010    2.4500   15.8530 C.3       1 DX9         0.0073
     27 C21         5.9360    5.5240   21.9400 C.ar      1 DX9        -0.0666
     28 C20         6.8210    4.5210   21.5670 C.ar      1 DX9        -0.0393
     29 C17         6.7960    6.9530   20.1780 C.ar      1 DX9        -0.0666
     30 C18         7.6780    5.9480   19.8020 C.ar      1 DX9        -0.0393
     31 C19         7.6880    4.7380   20.5010 C.ar      1 DX9         0.0848
     32 O25         8.6120    3.6880   20.1390 O.3       1 DX9        -0.3146
     33 C16         5.9370    6.7410   21.2500 C.ar      1 DX9        -0.0358
     34 H1          6.7954    7.3192   25.1894 H         1 DX9         0.0531
     35 H2          7.2893    9.7674   21.7157 H         1 DX9         0.0586
     36 H3          9.5562   10.4245   22.4989 H         1 DX9         0.0620
     37 H4         11.3443   10.2273   24.1703 H         1 DX9         0.0619
     38 H5         12.1737    9.2805   26.3024 H         1 DX9         0.0598
     39 H6          8.4779    7.2318   26.8301 H         1 DX9         0.0603
     40 H7         10.4501    6.0069   29.2199 H         1 DX9         0.3181
     41 H8          9.1396    6.3847   28.0700 H         1 DX9         0.3181
     42 H9         12.7775    8.2384   27.6683 H         1 DX9         0.3181
     43 H10        12.5352    7.0573   28.9832 H         1 DX9         0.3181
     44 H11         4.7981    9.1232   23.4309 H         1 DX9         0.0468
     45 H12         5.1100    7.3868   23.7693 H         1 DX9         0.0468
     46 H13         5.3381    8.7567   21.0670 H         1 DX9         0.0625
     47 H14         6.6580    2.6939   18.8790 H         1 DX9         0.0828
     48 H15         7.1655    3.8436   17.5956 H         1 DX9         0.0828
     49 H16         9.4019    3.8488   18.2976 H         1 DX9         0.0693
     50 H17         9.0067    1.2159   19.6705 H         1 DX9         0.0338
     51 H18        10.4412    1.8673   18.8077 H         1 DX9         0.0338
     52 H19         9.6682    1.1482   16.7397 H         1 DX9         0.0799
     53 H20         8.7117   -0.0028   17.7332 H         1 DX9         0.0799
     54 H21         6.3672    0.2038   14.8141 H         1 DX9         0.3177
     55 H22         7.7477   -0.2439   15.8515 H         1 DX9         0.3177
     56 H23         5.6998    3.3569   16.4755 H         1 DX9         0.0245
     57 H24         4.7570    1.9043   15.9984 H         1 DX9         0.0245
     58 H25         5.8024    2.7319   14.7946 H         1 DX9         0.0245
     59 H26         5.2476    5.3647   22.7620 H         1 DX9         0.0533
     60 H27         6.8361    3.5780   22.1014 H         1 DX9         0.0526
     61 H28         6.7778    7.8941   19.6403 H         1 DX9         0.0533
     62 H29         8.3556    6.1016   18.9700 H         1 DX9         0.0526
@<TRIPOS>BOND
     1    2    1 ar 
     2    1   10 ar 
     3    2    3 ar 
     4   14    2 1  
     5    3    4 ar 
     6    4    5 ar 
     7    5    6 ar 
     8   10    5 ar 
     9    6    7 ar 
    10    8    7 ar 
    11    9    8 ar 
    12    8   11 1  
    13   10    9 ar 
    14   11   12 ar 
    15   11   13 ar 
    16    1   34 1  
    17    3   35 1  
    18    4   36 1  
    19    6   37 1  
    20   18   14 1  
    21   15   16 ar 
    22   15   17 ar 
    23   18   15 1  
    24   33   18 1  
    25   20   19 1  
    26   23   19 1  
    27   19   24 ar 
    28   21   20 1  
    29   21   22 1  
    30   32   21 1  
    31   22   23 1  
    32   24   25 ar 
    33   24   26 1  
    34    7   38 1  
    35    9   39 1  
    36   28   27 ar 
    37   27   33 ar 
    38   31   28 ar 
    39   30   29 ar 
    40   29   33 ar 
    41   31   30 ar 
    42   31   32 1  
    43   12   40 1  
    44   12   41 1  
    45   13   42 1  
    46   13   43 1  
    47   14   44 1  
    48   14   45 1  
    49   18   46 1  
    50   20   47 1  
    51   20   48 1  
    52   21   49 1  
    53   22   50 1  
    54   22   51 1  
    55   23   52 1  
    56   23   53 1  
    57   25   54 1  
    58   25   55 1  
    59   26   56 1  
    60   26   57 1  
    61   26   58 1  
    62   27   59 1  
    63   28   60 1  
    64   29   61 1  
    65   30   62 1  
@<TRIPOS>SUBSTRUCTURE
     1 DX9         1

