### 
### Created by X-TOOL on Mon Sep 10 21:12:47 2018
### 

@<TRIPOS>MOLECULE
1fbm_ligand
   57    57     1     0     0
SMALL
GAST_HUCK


@<TRIPOS>ATOM
      1 C1         29.2390   47.8000   -1.9220 C.3       1 RTL        -0.0219
      2 C2         28.9030   48.3950   -0.5190 C.3       1 RTL        -0.0455
      3 C3         29.8370   48.0100    0.6180 C.3       1 RTL        -0.0520
      4 C4         30.9540   47.1010    0.1370 C.3       1 RTL        -0.0481
      5 C5         31.4960   47.4840   -1.2560 C.3       1 RTL        -0.0306
      6 C6         30.7540   47.8990   -2.3400 C.3       1 RTL        -0.0070
      7 C7         31.2540   47.2950   -3.6040 C.2       1 RTL        -0.0809
      8 C8         32.3640   47.8120   -4.2770 C.2       1 RTL        -0.0825
      9 C9         32.7730   47.1160   -5.5070 C.2       1 RTL        -0.0774
     10 C10        33.8520   47.7870   -6.0120 C.2       1 RTL        -0.0955
     11 C11        34.2860   47.1070   -7.2360 C.3       1 RTL        -0.0367
     12 C12        35.3740   47.7250   -7.8060 C.3       1 RTL        -0.0437
     13 C13        35.8410   46.9840   -8.9890 C.3       1 RTL        -0.0402
     14 C14        36.9270   47.6230   -9.5430 C.3       1 RTL        -0.0270
     15 C15        37.3720   46.8840  -10.7320 C.3       1 RTL         0.0445
     16 O1         38.4460   47.4980  -11.2990 O.3       1 RTL        -0.3950
     17 C16        28.5690   48.8340   -2.7680 C.3       1 RTL        -0.0574
     18 C17        28.5080   46.4700   -2.0600 C.3       1 RTL        -0.0574
     19 C18        33.0100   47.3970   -1.2340 C.3       1 RTL        -0.0600
     20 C19        31.8870   45.8980   -5.7960 C.3       1 RTL        -0.0441
     21 C20        36.2760   45.5520   -8.6320 C.3       1 RTL        -0.0622
     22 H1         27.8902   48.0624   -0.2478 H         1 RTL         0.0272
     23 H2         28.9174   49.4913   -0.6078 H         1 RTL         0.0272
     24 H3         29.2590   47.4863    1.3936 H         1 RTL         0.0266
     25 H4         30.2779   48.9236    1.0434 H         1 RTL         0.0266
     26 H5         30.5706   46.0710    0.0912 H         1 RTL         0.0270
     27 H6         31.7816   47.1525    0.8598 H         1 RTL         0.0270
     28 H7         31.3989   46.4493   -1.6164 H         1 RTL         0.0327
     29 H8         30.9432   48.9754   -2.4651 H         1 RTL         0.0485
     30 H9         30.7414   46.4269   -4.0158 H         1 RTL         0.0629
     31 H10        32.8995   48.6862   -3.9096 H         1 RTL         0.0405
     32 H11        34.3106   48.6748   -5.5790 H         1 RTL         0.0425
     33 H12        33.4563   47.1100   -7.9581 H         1 RTL         0.0393
     34 H13        34.5546   46.0690   -6.9904 H         1 RTL         0.0393
     35 H14        36.1879   47.7738   -7.0676 H         1 RTL         0.0289
     36 H15        35.0915   48.7442   -8.1083 H         1 RTL         0.0289
     37 H16        35.0240   46.9409   -9.7243 H         1 RTL         0.0300
     38 H17        37.7443   47.6623   -8.8079 H         1 RTL         0.0290
     39 H18        36.6435   48.6460   -9.8313 H         1 RTL         0.0290
     40 H19        36.5504   46.8441  -11.4623 H         1 RTL         0.0557
     41 H20        37.6523   45.8614  -10.4391 H         1 RTL         0.0557
     42 H21        38.7211   47.0086  -12.0653 H         1 RTL         0.2094
     43 H22        27.4912   48.8451   -2.5486 H         1 RTL         0.0237
     44 H23        28.7244   48.5954   -3.8305 H         1 RTL         0.0237
     45 H24        28.9982   49.8225   -2.5475 H         1 RTL         0.0237
     46 H25        29.0044   45.7123   -1.4359 H         1 RTL         0.0237
     47 H26        28.5271   46.1484   -3.1118 H         1 RTL         0.0237
     48 H27        27.4649   46.5891   -1.7319 H         1 RTL         0.0237
     49 H28        33.3423   47.0378   -0.2489 H         1 RTL         0.0234
     50 H29        33.4373   48.3925   -1.4245 H         1 RTL         0.0234
     51 H30        33.3485   46.6976   -2.0126 H         1 RTL         0.0234
     52 H31        31.1147   45.8133   -5.0172 H         1 RTL         0.0348
     53 H32        32.5048   44.9879   -5.8002 H         1 RTL         0.0348
     54 H33        31.4059   46.0192   -6.7778 H         1 RTL         0.0348
     55 H34        35.4282   45.0119   -8.1854 H         1 RTL         0.0232
     56 H35        37.1068   45.5899   -7.9121 H         1 RTL         0.0232
     57 H36        36.6039   45.0304   -9.5433 H         1 RTL         0.0232
@<TRIPOS>BOND
     1    1    2 1  
     2    1    6 1  
     3    1   17 1  
     4    1   18 1  
     5    2    3 1  
     6    3    4 1  
     7    4    5 1  
     8    5    6 1  
     9    5   19 1  
    10    6    7 1  
    11    7    8 2  
    12    8    9 1  
    13    9   10 2  
    14    9   20 1  
    15   10   11 1  
    16   11   12 1  
    17   12   13 1  
    18   13   14 1  
    19   13   21 1  
    20   14   15 1  
    21   15   16 1  
    22    2   22 1  
    23    2   23 1  
    24    3   24 1  
    25    3   25 1  
    26    4   26 1  
    27    4   27 1  
    28    5   28 1  
    29    6   29 1  
    30    7   30 1  
    31    8   31 1  
    32   10   32 1  
    33   11   33 1  
    34   11   34 1  
    35   12   35 1  
    36   12   36 1  
    37   13   37 1  
    38   14   38 1  
    39   14   39 1  
    40   15   40 1  
    41   15   41 1  
    42   16   42 1  
    43   17   43 1  
    44   17   44 1  
    45   17   45 1  
    46   18   46 1  
    47   18   47 1  
    48   18   48 1  
    49   19   49 1  
    50   19   50 1  
    51   19   51 1  
    52   20   52 1  
    53   20   53 1  
    54   20   54 1  
    55   21   55 1  
    56   21   56 1  
    57   21   57 1  
@<TRIPOS>SUBSTRUCTURE
     1 RTL         1

