### 
### Created by X-TOOL on Mon Sep 10 21:12:47 2018
### 

@<TRIPOS>MOLECULE
1fcx_ligand
   56    59     1     0     0
SMALL
GAST_HUCK


@<TRIPOS>ATOM
      1 C1         34.8120   18.3020   88.3100 C.2       1 184         0.0615
      2 C2         35.6880   17.3620   87.6370 C.ar      1 184         0.0088
      3 C3         35.7540   16.0480   88.1900 C.ar      1 184        -0.0503
      4 C4         36.5760   15.0880   87.6060 C.ar      1 184        -0.0551
      5 C5         37.3590   15.3820   86.4520 C.ar      1 184        -0.0228
      6 C10        37.2920   16.6660   85.9170 C.ar      1 184        -0.0176
      7 C11        36.4480   17.6410   86.5260 C.ar      1 184        -0.0414
      8 C15        42.6820   13.8490   81.6850 C.ar      1 184        -0.0366
      9 C16        43.0400   13.2180   80.3560 C.3       1 184        -0.0340
     10 C17        44.4770   13.5720   79.9670 C.3       1 184        -0.0749
     11 C18        44.9220   14.9440   80.2750 C.3       1 184        -0.0787
     12 C19        44.8200   15.2950   81.7390 C.3       1 184        -0.0417
     13 C20        43.4990   14.7970   82.3090 C.ar      1 184        -0.0429
     14 C23        42.0230   13.6600   79.3050 C.3       1 184        -0.0795
     15 C24        43.0550   11.6870   80.4240 C.3       1 184        -0.0795
     16 C25        44.8160   16.8220   81.6780 C.3       1 184        -0.0844
     17 C26        45.9950   14.8610   82.6600 C.3       1 184        -0.0844
     18 O1         34.4210   18.1730   89.4200 O.co2     1 184        -0.5613
     19 O2         34.4720   19.3250   87.5700 O.co2     1 184        -0.5613
     20 C6         38.1860   14.4020   85.8600 C.ar      1 184        -0.0475
     21 C7         38.9520   14.6930   84.7340 C.ar      1 184         0.0050
     22 C8         38.8660   15.9890   84.2030 C.ar      1 184        -0.0500
     23 C9         38.0520   16.9820   84.7780 C.ar      1 184        -0.0546
     24 C13        41.1700   14.0730   83.5500 C.ar      1 184         0.0588
     25 C14        41.4920   13.4880   82.3290 C.ar      1 184        -0.0021
     26 C21        43.1310   15.3500   83.5270 C.ar      1 184        -0.0198
     27 C22        41.9870   14.9980   84.1470 C.ar      1 184         0.0033
     28 C12        39.8360   13.5480   84.0920 C.3       1 184         0.1440
     29 O3         39.9280   12.5170   85.0740 O.3       1 184        -0.3602
     30 H1         35.1643   15.7975   89.0644 H         1 184         0.0635
     31 H2         36.6215   14.0951   88.0385 H         1 184         0.0608
     32 H3         36.4043   18.6361   86.0982 H         1 184         0.0665
     33 H4         44.5757   13.4243   78.8815 H         1 184         0.0176
     34 H5         45.1471   12.8769   80.4941 H         1 184         0.0176
     35 H6         44.2996   15.6485   79.7038 H         1 184         0.0162
     36 H7         45.9722   15.0475   79.9645 H         1 184         0.0162
     37 H8         41.0110   13.3818   79.6343 H         1 184         0.0148
     38 H9         42.2461   13.1655   78.3481 H         1 184         0.0148
     39 H10        42.0796   14.7509   79.1759 H         1 184         0.0148
     40 H11        42.0546   11.3225   80.7003 H         1 184         0.0148
     41 H12        43.7856   11.3606   81.1788 H         1 184         0.0148
     42 H13        43.3354   11.2790   79.4417 H         1 184         0.0148
     43 H14        44.7441   17.2295   82.6972 H         1 184         0.0132
     44 H15        43.9545   17.1631   81.0852 H         1 184         0.0132
     45 H16        45.7465   17.1726   81.2078 H         1 184         0.0132
     46 H17        46.0243   13.7633   82.7242 H         1 184         0.0132
     47 H18        45.8484   15.2833   83.6651 H         1 184         0.0132
     48 H19        46.9436   15.2293   82.2423 H         1 184         0.0132
     49 H20        38.2251   13.4073   86.2890 H         1 184         0.0548
     50 H21        39.4460   16.2332   83.3204 H         1 184         0.0595
     51 H22        38.0116   17.9765   84.3486 H         1 184         0.0628
     52 H23        40.8272   12.7589   81.8801 H         1 184         0.0956
     53 H24        43.7798   16.0836   83.9918 H         1 184         0.0953
     54 H25        41.7179   15.4383   85.1003 H         1 184         0.0867
     55 H26        39.2918   13.1363   83.2292 H         1 184         0.1004
     56 H27        40.4528   11.8023   84.7330 H         1 184         0.2176
@<TRIPOS>BOND
     1    1   19 ar 
     2    1   18 ar 
     3    1    2 1  
     4    2    7 ar 
     5    2    3 ar 
     6    3    4 ar 
     7    4    5 ar 
     8    5   20 ar 
     9    5    6 ar 
    10    6   23 ar 
    11    6    7 ar 
    12   23   22 ar 
    13   22   21 ar 
    14   21   28 1  
    15   21   20 ar 
    16   28   29 1  
    17   28   24 1  
    18   24   27 ar 
    19   24   25 ar 
    20   25    8 ar 
    21    8   13 ar 
    22    8    9 1  
    23    9   15 1  
    24    9   14 1  
    25    9   10 1  
    26   10   11 1  
    27   11   12 1  
    28   12   17 1  
    29   12   16 1  
    30   12   13 1  
    31   13   26 ar 
    32   26   27 ar 
    33    3   30 1  
    34    4   31 1  
    35    7   32 1  
    36   10   33 1  
    37   10   34 1  
    38   11   35 1  
    39   11   36 1  
    40   14   37 1  
    41   14   38 1  
    42   14   39 1  
    43   15   40 1  
    44   15   41 1  
    45   15   42 1  
    46   16   43 1  
    47   16   44 1  
    48   16   45 1  
    49   17   46 1  
    50   17   47 1  
    51   17   48 1  
    52   20   49 1  
    53   22   50 1  
    54   23   51 1  
    55   25   52 1  
    56   26   53 1  
    57   27   54 1  
    58   28   55 1  
    59   29   56 1  
@<TRIPOS>SUBSTRUCTURE
     1 184         1

