### 
### Created by X-TOOL on Mon Sep 10 21:12:47 2018
### 

@<TRIPOS>MOLECULE
1fcy_ligand
   54    57     1     0     0
SMALL
GAST_HUCK


@<TRIPOS>ATOM
      1 C1         34.6330   18.3790   88.3370 C.2       1 564         0.0637
      2 C2         35.5520   17.4410   87.7130 C.ar      1 564         0.0122
      3 C3         35.6220   16.1120   88.2530 C.ar      1 564        -0.0465
      4 C4         36.5060   15.2120   87.6690 C.ar      1 564        -0.0495
      5 C5         37.3130   15.5740   86.5590 C.ar      1 564        -0.0098
      6 C10        37.2340   16.8700   86.0530 C.ar      1 564        -0.0111
      7 C11        36.3560   17.8050   86.6300 C.ar      1 564        -0.0374
      8 C15        42.7800   13.8630   81.8470 C.ar      1 564        -0.0279
      9 C16        43.1920   13.0000   80.6640 C.3       1 564        -0.0323
     10 C17        44.6050   13.3080   80.2110 C.3       1 564        -0.0737
     11 C18        45.0020   14.7270   80.2690 C.3       1 564        -0.0735
     12 C19        44.8770   15.3370   81.6410 C.3       1 564        -0.0319
     13 C20        43.5400   14.9400   82.3100 C.ar      1 564        -0.0297
     14 C23        42.2110   13.2960   79.5200 C.3       1 564        -0.0795
     15 C24        43.1640   11.5340   81.0310 C.3       1 564        -0.0795
     16 C25        44.8570   16.8250   81.3310 C.3       1 564        -0.0792
     17 C26        46.0300   15.0210   82.6060 C.3       1 564        -0.0792
     18 O1         34.1880   18.1160   89.4160 O.co2     1 564        -0.5603
     19 O2         34.3400   19.4520   87.6620 O.co2     1 564        -0.5603
     20 C6         38.2000   14.6500   85.9490 C.ar      1 564        -0.0329
     21 C7         39.0090   14.9880   84.8700 C.ar      1 564         0.0402
     22 C8         38.8870   16.3130   84.3900 C.ar      1 564        -0.0435
     23 C9         38.0310   17.2340   84.9560 C.ar      1 564        -0.0495
     24 C13        41.1550   14.3290   83.5980 C.ar      1 564         0.0911
     25 C14        41.5880   13.5660   82.4990 C.ar      1 564         0.0045
     26 C21        43.1150   15.6960   83.4000 C.ar      1 564        -0.0090
     27 C22        41.9660   15.3780   84.0030 C.ar      1 564         0.0126
     28 C12        39.9170   13.9910   84.2450 C.2       1 564         0.1863
     29 O3         39.5140   12.7970   84.3100 O.2       1 564        -0.3544
     30 H1         35.0025   15.8188   89.0929 H         1 564         0.0645
     31 H2         36.5809   14.2083   88.0716 H         1 564         0.0639
     32 H3         36.3029   18.8122   86.2328 H         1 564         0.0671
     33 H4         44.7063   12.9715   79.1687 H         1 564         0.0177
     34 H5         45.2960   12.7378   80.8492 H         1 564         0.0177
     35 H6         44.3624   15.2948   79.5773 H         1 564         0.0178
     36 H7         46.0510   14.8072   79.9479 H         1 564         0.0178
     37 H8         41.1856   13.0723   79.8493 H         1 564         0.0148
     38 H9         42.4617   12.6702   78.6508 H         1 564         0.0148
     39 H10        42.2830   14.3575   79.2406 H         1 564         0.0148
     40 H11        42.1535   11.2597   81.3682 H         1 564         0.0148
     41 H12        43.8845   11.3448   81.8403 H         1 564         0.0148
     42 H13        43.4334   10.9306   80.1516 H         1 564         0.0148
     43 H14        44.7671   17.3936   82.2683 H         1 564         0.0148
     44 H15        43.9997   17.0526   80.6805 H         1 564         0.0148
     45 H16        45.7898   17.1057   80.8200 H         1 564         0.0148
     46 H17        46.0389   13.9433   82.8262 H         1 564         0.0148
     47 H18        45.8913   15.5849   83.5402 H         1 564         0.0148
     48 H19        46.9853   15.3084   82.1426 H         1 564         0.0148
     49 H20        38.2489   13.6401   86.3398 H         1 564         0.0698
     50 H21        39.4911   16.6167   83.5427 H         1 564         0.0654
     51 H22        37.9734   18.2391   84.5540 H         1 564         0.0634
     52 H23        40.9839   12.7342   82.1550 H         1 564         0.1026
     53 H24        43.7085   16.5311   83.7542 H         1 564         0.0980
     54 H25        41.6512   15.9715   84.8538 H         1 564         0.0969
@<TRIPOS>BOND
     1    1   19 ar 
     2    1   18 ar 
     3    1    2 1  
     4    2    7 ar 
     5    2    3 ar 
     6    3    4 ar 
     7    4    5 ar 
     8    5   20 ar 
     9    5    6 ar 
    10    6   23 ar 
    11    6    7 ar 
    12   23   22 ar 
    13   22   21 ar 
    14   21   28 1  
    15   21   20 ar 
    16   28   29 2  
    17   28   24 1  
    18   24   27 ar 
    19   24   25 ar 
    20   25    8 ar 
    21    8   13 ar 
    22    8    9 1  
    23    9   15 1  
    24    9   14 1  
    25    9   10 1  
    26   10   11 1  
    27   11   12 1  
    28   12   17 1  
    29   12   16 1  
    30   12   13 1  
    31   13   26 ar 
    32   26   27 ar 
    33    3   30 1  
    34    4   31 1  
    35    7   32 1  
    36   10   33 1  
    37   10   34 1  
    38   11   35 1  
    39   11   36 1  
    40   14   37 1  
    41   14   38 1  
    42   14   39 1  
    43   15   40 1  
    44   15   41 1  
    45   15   42 1  
    46   16   43 1  
    47   16   44 1  
    48   16   45 1  
    49   17   46 1  
    50   17   47 1  
    51   17   48 1  
    52   20   49 1  
    53   22   50 1  
    54   23   51 1  
    55   25   52 1  
    56   26   53 1  
    57   27   54 1  
@<TRIPOS>SUBSTRUCTURE
     1 564         1

