### 
### Created by X-TOOL on Mon Sep 10 21:12:47 2018
### 

@<TRIPOS>MOLECULE
1fcz_ligand
   52    54     1     0     0
SMALL
GAST_HUCK


@<TRIPOS>ATOM
      1 C1         34.7480   18.1560   88.4120 C.2       1 156         0.0644
      2 C2         35.7910   17.5340   87.6320 C.ar      1 156         0.0127
      3 C3         36.7020   18.0550   86.7590 C.ar      1 156        -0.0441
      4 C4         37.6590   17.3780   86.0560 C.ar      1 156        -0.0468
      5 C5         37.7900   16.0100   86.2830 C.ar      1 156        -0.0120
      6 C8         38.6810   15.1990   85.5140 C.2       1 156        -0.0366
      7 C9         38.9030   13.9020   85.5560 C.2       1 156         0.0020
      8 C6         36.9940   15.4510   87.2620 C.ar      1 156        -0.0468
      9 C7         36.0880   16.1610   88.0620 C.ar      1 156        -0.0441
     10 C10        39.8460   13.1440   84.6980 C.2       1 156         0.1734
     11 C11        41.0460   13.7290   84.0750 C.ar      1 156         0.0885
     12 C12        41.5000   13.2540   82.8490 C.ar      1 156         0.0042
     13 C13        42.6370   13.7640   82.1980 C.ar      1 156        -0.0280
     14 C14        43.0510   13.1680   80.8440 C.3       1 156        -0.0323
     15 C15        44.5010   13.6010   80.5050 C.3       1 156        -0.0737
     16 C16        44.7060   15.0800   80.7250 C.3       1 156        -0.0735
     17 C17        44.5920   15.4510   82.2180 C.3       1 156        -0.0320
     18 C18        43.3480   14.8110   82.8230 C.ar      1 156        -0.0298
     19 C19        42.8760   15.2680   84.0460 C.ar      1 156        -0.0091
     20 C20        41.7720   14.7590   84.6630 C.ar      1 156         0.0122
     21 C21        42.0810   13.6990   79.8090 C.3       1 156        -0.0795
     22 C22        43.0100   11.6560   80.8730 C.3       1 156        -0.0795
     23 C23        44.4830   16.9790   82.2380 C.3       1 156        -0.0793
     24 C24        45.8510   15.0530   82.9860 C.3       1 156        -0.0793
     25 O1         34.4060   19.3090   87.8470 O.co2     1 156        -0.5601
     26 O2         34.2180   17.7630   89.4120 O.co2     1 156        -0.5601
     27 O3         39.5140   11.9680   84.4180 O.2       1 156        -0.3622
     28 H1         36.6619   19.1274   86.6059 H         1 156         0.0658
     29 H2         38.2962   17.8899   85.3439 H         1 156         0.0657
     30 H3         39.2703   15.7404   84.7754 H         1 156         0.0756
     31 H4         38.3397   13.3303   86.2920 H         1 156         0.0673
     32 H5         37.0755   14.3824   87.4246 H         1 156         0.0657
     33 H6         35.6343   15.7237   88.9440 H         1 156         0.0658
     34 H7         40.9500   12.4509   82.3719 H         1 156         0.1024
     35 H8         44.7064   13.3654   79.4504 H         1 156         0.0177
     36 H9         45.1990   13.0446   81.1478 H         1 156         0.0177
     37 H10        43.9426   15.6346   80.1597 H         1 156         0.0177
     38 H11        45.7061   15.3600   80.3626 H         1 156         0.0177
     39 H12        43.4135   16.0717   84.5361 H         1 156         0.0980
     40 H13        41.4576   15.1604   85.6196 H         1 156         0.0967
     41 H14        41.0598   13.3817   80.0668 H         1 156         0.0148
     42 H15        42.3488   13.3032   78.8183 H         1 156         0.0148
     43 H16        42.1298   14.7977   79.7903 H         1 156         0.0148
     44 H17        41.9897   11.3214   81.1119 H         1 156         0.0148
     45 H18        43.7064   11.2849   81.6393 H         1 156         0.0148
     46 H19        43.3039   11.2623   79.8889 H         1 156         0.0148
     47 H20        44.3973   17.3269   83.2780 H         1 156         0.0148
     48 H21        43.5923   17.2905   81.6726 H         1 156         0.0148
     49 H22        45.3811   17.4167   81.7778 H         1 156         0.0148
     50 H23        45.9502   13.9575   82.9849 H         1 156         0.0148
     51 H24        45.7775   15.4134   84.0227 H         1 156         0.0148
     52 H25        46.7320   15.5014   82.5035 H         1 156         0.0148
@<TRIPOS>BOND
     1    1   26 ar 
     2    1   25 ar 
     3    1    2 1  
     4    2    9 ar 
     5    2    3 ar 
     6    3    4 ar 
     7    4    5 ar 
     8    5    8 ar 
     9    5    6 1  
    10    6    7 2  
    11    7   10 1  
    12   10   27 2  
    13   10   11 1  
    14   11   20 ar 
    15   11   12 ar 
    16   12   13 ar 
    17   13   18 ar 
    18   13   14 1  
    19   14   22 1  
    20   14   21 1  
    21   14   15 1  
    22   15   16 1  
    23   16   17 1  
    24   17   24 1  
    25   17   23 1  
    26   17   18 1  
    27   18   19 ar 
    28   19   20 ar 
    29    8    9 ar 
    30    3   28 1  
    31    4   29 1  
    32    6   30 1  
    33    7   31 1  
    34    8   32 1  
    35    9   33 1  
    36   12   34 1  
    37   15   35 1  
    38   15   36 1  
    39   16   37 1  
    40   16   38 1  
    41   19   39 1  
    42   20   40 1  
    43   21   41 1  
    44   21   42 1  
    45   21   43 1  
    46   22   44 1  
    47   22   45 1  
    48   22   46 1  
    49   23   47 1  
    50   23   48 1  
    51   23   49 1  
    52   24   50 1  
    53   24   51 1  
    54   24   52 1  
@<TRIPOS>SUBSTRUCTURE
     1 156         1

