### 
### Created by X-TOOL on Mon Sep 10 21:12:47 2018
### 

@<TRIPOS>MOLECULE
1fd7_ligand
   51    53     1     0     0
SMALL
GAST_HUCK


@<TRIPOS>ATOM
      1 C1        -12.9710    9.7470    4.2680 C.3       1 AI1         0.2096
      2 O1        -14.1080    8.8690    4.4820 O.3       1 AI1        -0.2841
      3 C2        -12.0860    9.5260    3.0070 C.3       1 AI1         0.1385
      4 O2        -12.8610    9.3430    1.8140 O.3       1 AI1        -0.3837
      5 C3        -11.4180    8.1240    3.1480 C.3       1 AI1         0.1145
      6 O3        -10.4600    8.1150    2.0930 O.3       1 AI1        -0.3864
      7 C4        -10.5950    8.1520    4.4700 C.3       1 AI1         0.1119
      8 O4         -9.4480    8.9710    4.3330 O.3       1 AI1        -0.3865
      9 C5        -11.4830    8.4770    5.6770 C.3       1 AI1         0.1134
     10 O5        -12.1790    9.7350    5.4680 O.3       1 AI1        -0.3369
     11 C6        -10.6190    8.6010    6.9700 C.3       1 AI1         0.0730
     12 O6        -11.4150    8.6940    8.1190 O.3       1 AI1        -0.3924
     13 C1'       -15.0200    9.1870    5.5610 C.ar      1 AI1         0.0998
     14 C2'       -14.8370   10.2530    6.4510 C.ar      1 AI1        -0.0287
     15 C3'       -15.8140   10.4480    7.4500 C.ar      1 AI1        -0.0649
     16 C4'       -16.9280    9.5440    7.4990 C.ar      1 AI1        -0.0530
     17 C5'       -17.1210    8.4620    6.5990 C.ar      1 AI1         0.0413
     18 C6'       -16.1040    8.3160    5.6230 C.ar      1 AI1        -0.0134
     19 C7'       -18.2020    7.5270    6.5850 C.2       1 AI1         0.2042
     20 O1'       -18.5250    6.9610    5.4550 O.2       1 AI1        -0.3845
     21 N1'       -18.8720    7.2320    7.6080 N.am      1 AI1        -0.2749
     22 C1'       -20.0120    6.3050    7.7700 C.3       1 AI1         0.0640
     23 C2'       -20.2700    6.0290    9.2390 C.ar      1 AI1        -0.0210
     24 C3'       -20.1420    4.7790    9.8080 C.ar      1 AI1        -0.0584
     25 C4'       -20.3590    4.5470   11.1680 C.ar      1 AI1        -0.0685
     26 C5'       -20.7340    5.6240   11.9500 C.ar      1 AI1        -0.0687
     27 C6'       -20.8890    6.9010   11.3940 C.ar      1 AI1        -0.0685
     28 C7'       -20.6460    7.0860   10.0540 C.ar      1 AI1        -0.0584
     29 H1        -13.3870   10.7592    4.1570 H         1 AI1         0.0993
     30 H2        -11.3551   10.3409    2.8991 H         1 AI1         0.0675
     31 H3        -13.4837    8.6380    1.9473 H         1 AI1         0.2101
     32 H4        -12.1332    7.2894    3.1041 H         1 AI1         0.0648
     33 H5         -9.9226    8.8965    2.1481 H         1 AI1         0.2100
     34 H6        -10.2224    7.1302    4.6344 H         1 AI1         0.0647
     35 H7         -8.9583    8.7022    3.5645 H         1 AI1         0.2100
     36 H8        -12.2193    7.6701    5.8067 H         1 AI1         0.0647
     37 H9         -9.9938    9.5030    6.8957 H         1 AI1         0.0584
     38 H10        -9.9742    7.7138    7.0541 H         1 AI1         0.0584
     39 H11       -11.9714    9.4614    8.0561 H         1 AI1         0.2095
     40 H12       -13.9747   10.9055    6.3749 H         1 AI1         0.0578
     41 H13       -15.7256   11.2600    8.1626 H         1 AI1         0.0601
     42 H14       -17.6707    9.6970    8.2736 H         1 AI1         0.0575
     43 H15       -16.1720    7.5054    4.9065 H         1 AI1         0.0592
     44 H16       -18.5881    7.6992    8.4453 H         1 AI1         0.1872
     45 H17       -19.7837    5.3581    7.2588 H         1 AI1         0.0683
     46 H18       -20.9107    6.7554    7.3234 H         1 AI1         0.0683
     47 H19       -19.8622    3.9446    9.1752 H         1 AI1         0.0557
     48 H20       -20.2378    3.5581   11.5952 H         1 AI1         0.0599
     49 H21       -20.9108    5.4783   13.0095 H         1 AI1         0.0559
     50 H22       -21.1975    7.7345   12.0146 H         1 AI1         0.0599
     51 H23       -20.7502    8.0766    9.6263 H         1 AI1         0.0557
@<TRIPOS>BOND
     1    1   10 1  
     2    1    3 1  
     3    1    2 1  
     4    2   13 1  
     5   13   18 ar 
     6   13   14 ar 
     7   14   15 ar 
     8   15   16 ar 
     9   16   17 ar 
    10   17   19 1  
    11   17   18 ar 
    12   19   21 am 
    13   19   20 2  
    14   21   22 1  
    15   22   23 1  
    16   23   28 ar 
    17   23   24 ar 
    18   24   25 ar 
    19   25   26 ar 
    20   26   27 ar 
    21   27   28 ar 
    22    3    5 1  
    23    3    4 1  
    24    5    7 1  
    25    5    6 1  
    26    7    9 1  
    27    7    8 1  
    28    9   11 1  
    29    9   10 1  
    30   11   12 1  
    31    1   29 1  
    32    3   30 1  
    33    4   31 1  
    34    5   32 1  
    35    6   33 1  
    36    7   34 1  
    37    8   35 1  
    38    9   36 1  
    39   11   37 1  
    40   11   38 1  
    41   12   39 1  
    42   14   40 1  
    43   15   41 1  
    44   16   42 1  
    45   18   43 1  
    46   21   44 1  
    47   22   45 1  
    48   22   46 1  
    49   24   47 1  
    50   25   48 1  
    51   26   49 1  
    52   27   50 1  
    53   28   51 1  
@<TRIPOS>SUBSTRUCTURE
     1 AI1         1

