### 
### Created by X-TOOL on Mon Sep 10 21:12:48 2018
### 

@<TRIPOS>MOLECULE
1fdq_ligand
   55    54     1     0     0
SMALL
GAST_HUCK


@<TRIPOS>ATOM
      1 C1          7.0540   13.4820   -0.1610 C.2       1 HXA         0.0365
      2 O1          8.2420   13.4820   -0.4650 O.co2     1 HXA        -0.5688
      3 O2          6.4390   14.5480    0.4130 O.co2     1 HXA        -0.5688
      4 C2          6.0960   12.3080   -0.3900 C.3       1 HXA         0.0069
      5 C3          6.7060   10.9930    0.1580 C.3       1 HXA        -0.0244
      6 C4          7.0460    9.9960   -0.9350 C.2       1 HXA        -0.0951
      7 C5          6.5630    8.7570   -1.0950 C.2       1 HXA        -0.0907
      8 C6          5.5490    8.0660   -0.2000 C.3       1 HXA        -0.0199
      9 C7          5.2110    6.6420   -0.6090 C.2       1 HXA        -0.0890
     10 C8          4.2290    5.8940   -0.0870 C.2       1 HXA        -0.0889
     11 C9          3.2340    6.2990    0.9860 C.3       1 HXA        -0.0194
     12 C10         1.9680    6.8880    0.3890 C.2       1 HXA        -0.0889
     13 C11         1.1480    7.7930    0.9360 C.2       1 HXA        -0.0889
     14 C12         1.2540    8.4760    2.2870 C.3       1 HXA        -0.0194
     15 C13         1.2220    9.9850    2.1460 C.2       1 HXA        -0.0889
     16 C14         2.2310   10.8480    2.3310 C.2       1 HXA        -0.0889
     17 C15         3.6570   10.5270    2.7260 C.3       1 HXA        -0.0194
     18 C16         3.8380   10.3100    4.2170 C.2       1 HXA        -0.0889
     19 C17         4.9550    9.8920    4.8260 C.2       1 HXA        -0.0890
     20 C18         6.2810    9.5280    4.1870 C.3       1 HXA        -0.0199
     21 C19         6.3280    8.0740    3.7530 C.2       1 HXA        -0.0908
     22 C20         7.3790    7.2460    3.7920 C.2       1 HXA        -0.0969
     23 C21         8.7660    7.5750    4.3090 C.3       1 HXA        -0.0388
     24 C22         9.6350    6.3170    4.4370 C.3       1 HXA        -0.0584
     25 H1          5.9095   12.1983   -1.4685 H         1 HXA         0.0450
     26 H2          5.1466   12.5095    0.1276 H         1 HXA         0.0450
     27 H3          5.9808   10.5288    0.8425 H         1 HXA         0.0408
     28 H4          7.6264   11.2365    0.7089 H         1 HXA         0.0408
     29 H5          7.7694   10.3280   -1.6782 H         1 HXA         0.0459
     30 H6          6.9328    8.1908   -1.9486 H         1 HXA         0.0463
     31 H7          4.6209    8.6563   -0.2135 H         1 HXA         0.0513
     32 H8          5.9537    8.0423    0.8226 H         1 HXA         0.0513
     33 H9          5.8181    6.1911   -1.3926 H         1 HXA         0.0471
     34 H10         4.1340    4.8814   -0.4764 H         1 HXA         0.0471
     35 H11         3.7017    7.0497    1.6400 H         1 HXA         0.0515
     36 H12         2.9684    5.4111    1.5784 H         1 HXA         0.0515
     37 H13         1.6948    6.5312   -0.6029 H         1 HXA         0.0471
     38 H14         0.2890    8.0777    0.3301 H         1 HXA         0.0471
     39 H15         2.2000    8.1809    2.7644 H         1 HXA         0.0515
     40 H16         0.4104    8.1572    2.9168 H         1 HXA         0.0515
     41 H17         0.2653   10.4198    1.8604 H         1 HXA         0.0471
     42 H18         1.9983   11.9010    2.1798 H         1 HXA         0.0471
     43 H19         4.3009   11.3629    2.4152 H         1 HXA         0.0515
     44 H20         3.9660    9.6112    2.2009 H         1 HXA         0.0515
     45 H21         2.9773   10.5136    4.8524 H         1 HXA         0.0471
     46 H22         4.9050    9.8028    5.9102 H         1 HXA         0.0471
     47 H23         7.0860    9.7066    4.9150 H         1 HXA         0.0513
     48 H24         6.4362   10.1663    3.3047 H         1 HXA         0.0513
     49 H25         5.3999    7.6566    3.3653 H         1 HXA         0.0463
     50 H26         7.2225    6.2363    3.4152 H         1 HXA         0.0458
     51 H27         8.6753    8.0481    5.2979 H         1 HXA         0.0387
     52 H28         9.2505    8.2738    3.6112 H         1 HXA         0.0387
     53 H29        10.6302    6.5956    4.8137 H         1 HXA         0.0249
     54 H30         9.7365    5.8396    3.4512 H         1 HXA         0.0249
     55 H31         9.1614    5.6139    5.1379 H         1 HXA         0.0249
@<TRIPOS>BOND
     1    1    4 1  
     2    1    3 ar 
     3    1    2 ar 
     4    4    5 1  
     5    5    6 1  
     6    6    7 2  
     7    7    8 1  
     8    8    9 1  
     9    9   10 2  
    10   10   11 1  
    11   11   12 1  
    12   12   13 2  
    13   13   14 1  
    14   14   15 1  
    15   15   16 2  
    16   16   17 1  
    17   17   18 1  
    18   18   19 2  
    19   19   20 1  
    20   20   21 1  
    21   21   22 2  
    22   22   23 1  
    23   23   24 1  
    24    4   25 1  
    25    4   26 1  
    26    5   27 1  
    27    5   28 1  
    28    6   29 1  
    29    7   30 1  
    30    8   31 1  
    31    8   32 1  
    32    9   33 1  
    33   10   34 1  
    34   11   35 1  
    35   11   36 1  
    36   12   37 1  
    37   13   38 1  
    38   14   39 1  
    39   14   40 1  
    40   15   41 1  
    41   16   42 1  
    42   17   43 1  
    43   17   44 1  
    44   18   45 1  
    45   19   46 1  
    46   20   47 1  
    47   20   48 1  
    48   21   49 1  
    49   22   50 1  
    50   23   51 1  
    51   23   52 1  
    52   24   53 1  
    53   24   54 1  
    54   24   55 1  
@<TRIPOS>SUBSTRUCTURE
     1 HXA         1

