### 
### Created by X-TOOL on Mon Sep 10 21:12:48 2018
### 

@<TRIPOS>MOLECULE
1fe3_ligand
   55    54     1     0     0
SMALL
GAST_HUCK


@<TRIPOS>ATOM
      1 C1         94.3250   71.7690  -40.2280 C.2       1 OLA         0.0348
      2 O1         94.7080   70.6330  -40.5840 O.co2     1 OLA        -0.5690
      3 O2         93.1710   72.1910  -40.4460 O.co2     1 OLA        -0.5690
      4 C2         95.2990   72.6770  -39.4950 C.3       1 OLA         0.0002
      5 C3         96.7040   72.6320  -40.0770 C.3       1 OLA        -0.0414
      6 C4         97.6550   73.5410  -39.3140 C.3       1 OLA        -0.0516
      7 C5         99.0660   73.4470  -39.8780 C.3       1 OLA        -0.0530
      8 C6        100.0440   74.3620  -39.1450 C.3       1 OLA        -0.0531
      9 C7         99.7260   75.8380  -39.3600 C.3       1 OLA        -0.0531
     10 C8         99.7580   76.2030  -40.8360 C.3       1 OLA        -0.0531
     11 C9         99.5260   77.5540  -41.5150 C.3       1 OLA        -0.0531
     12 C10        99.3520   77.6130  -42.8400 C.3       1 OLA        -0.0531
     13 C11        98.0020   77.3300  -43.5010 C.3       1 OLA        -0.0531
     14 C12        96.6510   77.3740  -42.8010 C.3       1 OLA        -0.0531
     15 C13        95.6040   76.5650  -43.5480 C.3       1 OLA        -0.0531
     16 C14        95.8170   75.0710  -43.3430 C.3       1 OLA        -0.0531
     17 C15        94.7930   74.2430  -44.1080 C.3       1 OLA        -0.0531
     18 C16        95.0230   74.3040  -45.6130 C.3       1 OLA        -0.0533
     19 C17        96.3440   73.6530  -46.0110 C.3       1 OLA        -0.0559
     20 C18        96.3630   72.1670  -45.6790 C.3       1 OLA        -0.0653
     21 H1         95.3455   72.3640  -38.4415 H         1 OLA         0.0430
     22 H2         94.9276   73.7107  -39.5544 H         1 OLA         0.0430
     23 H3         96.6659   72.9563  -41.1274 H         1 OLA         0.0283
     24 H4         97.0789   71.5992  -40.0254 H         1 OLA         0.0283
     25 H5         97.6693   73.2405  -38.2560 H         1 OLA         0.0266
     26 H6         97.3031   74.5800  -39.3954 H         1 OLA         0.0266
     27 H7         99.0424   73.7325  -40.9400 H         1 OLA         0.0265
     28 H8         99.4158   72.4083  -39.7852 H         1 OLA         0.0265
     29 H9        101.0607   74.1616  -39.5140 H         1 OLA         0.0265
     30 H10        99.9949   74.1426  -38.0682 H         1 OLA         0.0265
     31 H11       100.4701   76.4461  -38.8247 H         1 OLA         0.0265
     32 H12        98.7233   76.0500  -38.9606 H         1 OLA         0.0265
     33 H13        99.0102   75.5391  -41.2942 H         1 OLA         0.0265
     34 H14       100.7642   75.9048  -41.1657 H         1 OLA         0.0265
     35 H15       100.3983   78.1818  -41.2805 H         1 OLA         0.0265
     36 H16        98.6263   77.9902  -41.0564 H         1 OLA         0.0265
     37 H17       100.0624   76.8944  -43.2746 H         1 OLA         0.0265
     38 H18        99.6323   78.6333  -43.1407 H         1 OLA         0.0265
     39 H19        98.0853   76.3121  -43.9095 H         1 OLA         0.0265
     40 H20        97.9254   78.0517  -44.3276 H         1 OLA         0.0265
     41 H21        96.3157   78.4198  -42.7388 H         1 OLA         0.0265
     42 H22        96.7617   76.9634  -41.7865 H         1 OLA         0.0265
     43 H23        95.6720   76.7936  -44.6218 H         1 OLA         0.0265
     44 H24        94.6056   76.8398  -43.1771 H         1 OLA         0.0265
     45 H25        95.7296   74.8428  -42.2705 H         1 OLA         0.0265
     46 H26        96.8247   74.8036  -43.6939 H         1 OLA         0.0265
     47 H27        93.7868   74.6282  -43.8862 H         1 OLA         0.0265
     48 H28        94.8654   73.1957  -43.7794 H         1 OLA         0.0265
     49 H29        95.0359   75.3576  -45.9288 H         1 OLA         0.0265
     50 H30        94.2003   73.7791  -46.1205 H         1 OLA         0.0265
     51 H31        97.1631   74.1494  -45.4701 H         1 OLA         0.0263
     52 H32        96.4909   73.7780  -47.0939 H         1 OLA         0.0263
     53 H33        97.3292   71.7363  -45.9805 H         1 OLA         0.0230
     54 H34        95.5507   71.6599  -46.2203 H         1 OLA         0.0230
     55 H35        96.2229   72.0313  -44.5964 H         1 OLA         0.0230
@<TRIPOS>BOND
     1    1    2 ar 
     2    1    3 ar 
     3    1    4 1  
     4    4    5 1  
     5    5    6 1  
     6    6    7 1  
     7    7    8 1  
     8    8    9 1  
     9    9   10 1  
    10   10   11 1  
    11   11   12 1  
    12   12   13 1  
    13   13   14 1  
    14   14   15 1  
    15   15   16 1  
    16   16   17 1  
    17   17   18 1  
    18   18   19 1  
    19   19   20 1  
    20    4   21 1  
    21    4   22 1  
    22    5   23 1  
    23    5   24 1  
    24    6   25 1  
    25    6   26 1  
    26    7   27 1  
    27    7   28 1  
    28    8   29 1  
    29    8   30 1  
    30    9   31 1  
    31    9   32 1  
    32   10   33 1  
    33   10   34 1  
    34   11   35 1  
    35   11   36 1  
    36   12   37 1  
    37   12   38 1  
    38   13   39 1  
    39   13   40 1  
    40   14   41 1  
    41   14   42 1  
    42   15   43 1  
    43   15   44 1  
    44   16   45 1  
    45   16   46 1  
    46   17   47 1  
    47   17   48 1  
    48   18   49 1  
    49   18   50 1  
    50   19   51 1  
    51   19   52 1  
    52   20   53 1  
    53   20   54 1  
    54   20   55 1  
@<TRIPOS>SUBSTRUCTURE
     1 OLA         1

