### 
### Created by X-TOOL on Mon Sep 10 21:12:48 2018
### 

@<TRIPOS>MOLECULE
1ff1_ligand
   95    96     1     0     0
SMALL
GAST_HUCK


@<TRIPOS>ATOM
      1 N           4.7460    7.0830    8.2030 N.4       1 SER         0.2396
      2 CA          3.2920    7.1450    7.8670 C.3       1 SER         0.0885
      3 C           3.1040    7.3120    6.3550 C.2       1 SER         0.2291
      4 O           3.2120    8.3990    5.8240 O.2       1 SER        -0.3906
      5 CB          2.7630    8.3750    8.6060 C.3       1 SER         0.1041
      6 OG          1.3440    8.3970    8.5230 O.3       1 SER        -0.3870
      7 N           2.8190    6.2450    5.6580 N.am      1 THR        -0.2585
      8 CA          2.6230    6.3560    4.1830 C.3       1 THR         0.1566
      9 C           2.3230    4.9830    3.5750 C.2       1 THR         0.2066
     10 O           1.6330    4.8740    2.5810 O.2       1 THR        -0.3943
     11 CB          3.9460    6.9040    3.6420 C.3       1 THR         0.0924
     12 OG1         3.9450    6.8190    2.2240 O.3       1 THR        -0.3874
     13 CG2         5.1110    6.0850    4.2030 C.3       1 THR        -0.0346
     14 N           2.8370    3.9350    4.1590 N.am      1 ASN        -0.2615
     15 CA          2.5810    2.5740    3.6030 C.3       1 ASN         0.1478
     16 C           1.9030    1.6840    4.6500 C.2       1 ASN         0.2088
     17 O           2.4400    1.4620    5.7170 O.2       1 ASN        -0.3940
     18 CB          3.9630    2.0290    3.2500 C.3       1 ASN         0.0773
     19 CG          3.8130    0.6940    2.5200 C.2       1 ASN         0.1780
     20 OD1         2.8610   -0.0280    2.7390 O.2       1 ASN        -0.3970
     21 ND2         4.7190    0.3350    1.6530 N.am      1 ASN        -0.3007
     22 N           0.7350    1.2050    4.3070 N.am      1 PRO        -0.2497
     23 CA         -0.0310    0.3330    5.2300 C.3       1 PRO         0.1338
     24 C           0.5280   -1.0970    5.2320 C.2       1 PRO         0.2042
     25 O          -0.0350   -1.9880    5.8360 O.2       1 PRO        -0.3944
     26 CB         -1.4420    0.3600    4.6530 C.3       1 PRO        -0.0104
     27 CG         -1.2710    0.6750    3.1990 C.3       1 PRO        -0.0281
     28 CD          0.0240    1.4320    3.0440 C.3       1 PRO         0.0369
     29 N           1.6290   -1.3270    4.5640 N.am      1 PHE        -0.2619
     30 CA          2.2100   -2.7060    4.5400 C.3       1 PHE         0.1404
     31 C           3.6910   -2.6670    4.9340 C.2       1 PHE         0.2054
     32 O           4.4450   -3.5720    4.6370 O.2       1 PHE        -0.3942
     33 CB          2.0490   -3.1860    3.0930 C.3       1 PHE         0.0214
     34 CG          0.5840   -3.3450    2.7830 C.ar      1 PHE        -0.0386
     35 CD1        -0.1660   -4.3260    3.4400 C.ar      1 PHE        -0.0601
     36 CD2        -0.0230   -2.5110    1.8390 C.ar      1 PHE        -0.0601
     37 CE1        -1.5260   -4.4740    3.1510 C.ar      1 PHE        -0.0686
     38 CE2        -1.3820   -2.6590    1.5490 C.ar      1 PHE        -0.0686
     39 CZ         -2.1330   -3.6410    2.2050 C.ar      1 PHE        -0.0687
     40 N           4.1120   -1.6280    5.6030 N.am      1 LEU        -0.2693
     41 CA          5.5430   -1.5350    6.0150 C.3       1 LEU         0.0946
     42 C           5.6440   -1.3620    7.5340 C.2       1 LEU         0.0601
     43 O           4.7140   -0.8240    8.1110 O.co2     1 LEU        -0.5666
     44 CB          6.0850   -0.3000    5.2930 C.3       1 LEU        -0.0156
     45 CG          7.2960   -0.6960    4.4460 C.3       1 LEU        -0.0431
     46 CD1         6.8540   -1.6500    3.3360 C.3       1 LEU        -0.0625
     47 CD2         7.9170    0.5590    3.8250 C.3       1 LEU        -0.0625
     48 OXT         6.6480   -1.7720    8.0910 O.co2     1 LEU        -0.5666
     49 H1          4.8563    6.9732    9.1989 H         1 SER         0.2016
     50 H2          5.1959    7.9351    7.9070 H         1 SER         0.2016
     51 H3          5.1671    6.2988    7.7299 H         1 SER         0.2016
     52 H4          2.7751    6.2353    8.2065 H         1 SER         0.1122
     53 H5          3.1725    9.2856    8.1444 H         1 SER         0.0640
     54 H6          3.0689    8.3296    9.6616 H         1 SER         0.0640
     55 H7          1.0129    9.1603    8.9814 H         1 SER         0.2099
     56 H8          2.7325    5.3576    6.1108 H         1 THR         0.1885
     57 H9          1.7975    7.0462    3.9548 H         1 THR         0.0826
     58 H10         4.0586    7.9551    3.9462 H         1 THR         0.0639
     59 H11         3.8456    5.9111    1.9624 H         1 THR         0.2101
     60 H12         6.0597    6.4816    3.8122 H         1 THR         0.0257
     61 H13         5.0001    5.0337    3.8990 H         1 THR         0.0257
     62 H14         5.1106    6.1512    5.3010 H         1 THR         0.0257
     63 H15         3.4012    4.0439    4.9774 H         1 ASN         0.1885
     64 H16         1.9472    2.6343    2.7060 H         1 ASN         0.0826
     65 H17         4.5447    1.8796    4.1716 H         1 ASN         0.0551
     66 H18         4.4848    2.7461    2.5992 H         1 ASN         0.0551
     67 H19         4.6312   -0.5360    1.1696 H         1 ASN         0.1814
     68 H20         5.5014    0.9308    1.4717 H         1 ASN         0.1814
     69 H21        -0.0156    0.7347    6.2539 H         1 PRO         0.0802
     70 H22        -2.0449    1.1364    5.1466 H         1 PRO         0.0313
     71 H23        -1.9286   -0.6183    4.7802 H         1 PRO         0.0313
     72 H24        -2.1106    1.2930    2.8481 H         1 PRO         0.0287
     73 H25        -1.2325   -0.2568    2.6156 H         1 PRO         0.0287
     74 H26         0.6041    1.0405    2.1953 H         1 PRO         0.0524
     75 H27        -0.1682    2.5045    2.8932 H         1 PRO         0.0524
     76 H28         2.0810   -0.5837    4.0709 H         1 PHE         0.1885
     77 H29         1.6640   -3.3676    5.2286 H         1 PHE         0.0823
     78 H30         2.5584   -4.1528    2.9674 H         1 PHE         0.0474
     79 H31         2.4914   -2.4468    2.4090 H         1 PHE         0.0474
     80 H32         0.3065   -4.9707    4.1723 H         1 PHE         0.0557
     81 H33         0.5601   -1.7503    1.3326 H         1 PHE         0.0557
     82 H34        -2.1093   -5.2332    3.6593 H         1 PHE         0.0599
     83 H35        -1.8540   -2.0139    0.8168 H         1 PHE         0.0599
     84 H36        -3.1870   -3.7564    1.9797 H         1 PHE         0.0559
     85 H37         3.4751   -0.8942    5.8394 H         1 LEU         0.1875
     86 H38         6.0954   -2.4356    5.7088 H         1 LEU         0.0726
     87 H39         6.3867    0.4551    6.0338 H         1 LEU         0.0308
     88 H40         5.3026    0.1171    4.6419 H         1 LEU         0.0308
     89 H41         8.0405   -1.1959    5.0830 H         1 LEU         0.0297
     90 H42         7.7256   -1.9338    2.7279 H         1 LEU         0.0232
     91 H43         6.1091   -1.1510    2.6987 H         1 LEU         0.0232
     92 H44         6.4094   -2.5515    3.7828 H         1 LEU         0.0232
     93 H45         8.2347    1.2448    4.6242 H         1 LEU         0.0232
     94 H46         7.1733    1.0589    3.1871 H         1 LEU         0.0232
     95 H47         8.7890    0.2746    3.2178 H         1 LEU         0.0232
@<TRIPOS>BOND
     1    1    2 1  
     2    2    3 1  
     3    2    5 1  
     4    3    4 2  
     5    3    7 am 
     6    5    6 1  
     7    7    8 1  
     8    8    9 1  
     9    8   11 1  
    10    9   10 2  
    11    9   14 am 
    12   11   12 1  
    13   11   13 1  
    14   14   15 1  
    15   15   16 1  
    16   15   18 1  
    17   16   17 2  
    18   16   22 am 
    19   18   19 1  
    20   19   20 2  
    21   19   21 am 
    22   22   23 1  
    23   22   28 1  
    24   23   24 1  
    25   23   26 1  
    26   24   25 2  
    27   24   29 am 
    28   26   27 1  
    29   27   28 1  
    30   29   30 1  
    31   30   31 1  
    32   30   33 1  
    33   31   32 2  
    34   31   40 am 
    35   33   34 1  
    36   34   35 ar 
    37   34   36 ar 
    38   35   37 ar 
    39   36   38 ar 
    40   37   39 ar 
    41   38   39 ar 
    42   40   41 1  
    43   41   42 1  
    44   41   44 1  
    45   42   43 ar 
    46   42   48 ar 
    47   44   45 1  
    48   45   46 1  
    49   45   47 1  
    50    1   49 1  
    51    1   50 1  
    52    1   51 1  
    53    2   52 1  
    54    5   53 1  
    55    5   54 1  
    56    6   55 1  
    57    7   56 1  
    58    8   57 1  
    59   11   58 1  
    60   12   59 1  
    61   13   60 1  
    62   13   61 1  
    63   13   62 1  
    64   14   63 1  
    65   15   64 1  
    66   18   65 1  
    67   18   66 1  
    68   21   67 1  
    69   21   68 1  
    70   23   69 1  
    71   26   70 1  
    72   26   71 1  
    73   27   72 1  
    74   27   73 1  
    75   28   74 1  
    76   28   75 1  
    77   29   76 1  
    78   30   77 1  
    79   33   78 1  
    80   33   79 1  
    81   35   80 1  
    82   36   81 1  
    83   37   82 1  
    84   38   83 1  
    85   39   84 1  
    86   40   85 1  
    87   41   86 1  
    88   44   87 1  
    89   44   88 1  
    90   45   89 1  
    91   46   90 1  
    92   46   91 1  
    93   46   92 1  
    94   47   93 1  
    95   47   94 1  
    96   47   95 1  
@<TRIPOS>SUBSTRUCTURE
     1 SER         1

