### 
### Created by X-TOOL on Mon Sep 10 21:12:46 2018
### 

@<TRIPOS>MOLECULE
1fgi_ligand
   37    39     1     0     0
SMALL
GAST_HUCK


@<TRIPOS>ATOM
      1 H1          5.0559    1.3738   20.4035 H         1 SU1         0.2242
      2 H2          8.7574    5.1403   21.7403 H         1 SU1         0.0701
      3 H3          8.1985    5.6366   19.3479 H         1 SU1         0.0534
      4 H4          7.2376    5.7906   17.0588 H         1 SU1         0.0478
      5 H5          5.5116    4.1864   16.2971 H         1 SU1         0.0538
      6 H6          4.6913    2.4030   17.7866 H         1 SU1         0.0489
      7 H9          7.6370    2.0880   23.8601 H         1 SU1         0.2264
      8 H10         9.0744    1.7964   25.9651 H         1 SU1         0.0849
      9 H11        11.9269    4.5649   25.9315 H         1 SU1         0.0316
     10 H12        11.9020    2.8121   26.3234 H         1 SU1         0.0316
     11 H13        10.8193    3.9444   27.2023 H         1 SU1         0.0316
     12 H14        11.4203    5.8269   24.3582 H         1 SU1         0.0407
     13 H15        10.1356    6.2070   23.1616 H         1 SU1         0.0407
     14 H16        11.1001    4.4631   21.6810 H         1 SU1         0.0450
     15 N1          5.7320    2.1500   20.4400 N.am      1 SU1        -0.2400
     16 C2          6.5130    2.4730   21.5170 C.2       1 SU1         0.2107
     17 O2          6.4480    1.8200   22.5560 O.2       1 SU1        -0.3869
     18 C3          7.3090    3.5360   21.2270 C.2       1 SU1         0.0364
     19 C4          7.4410    4.9330   19.0220 C.ar      1 SU1        -0.0747
     20 C5          6.8970    5.0140   17.7340 C.ar      1 SU1        -0.0818
     21 C6          5.9110    4.0990   17.3010 C.ar      1 SU1        -0.0801
     22 C7          5.4480    3.1030   18.1220 C.ar      1 SU1        -0.0458
     23 C8          5.9940    3.0250   19.4180 C.ar      1 SU1         0.0667
     24 C9          6.9850    3.9220   19.8820 C.ar      1 SU1        -0.0055
     25 C10         8.3610    4.1930   22.1030 C.2       1 SU1        -0.0297
     26 N1'         8.4470    2.6740   24.1080 N.pl3     1 SU1        -0.2906
     27 C2'         8.9240    3.7030   23.4050 C.2       1 SU1         0.0612
     28 C3'         9.9880    4.2570   24.0490 C.2       1 SU1        -0.0340
     29 C4'        10.1990    3.5000   25.1750 C.2       1 SU1        -0.0454
     30 C5'         9.2110    2.5460   25.1870 C.2       1 SU1         0.0232
     31 C11        11.2890    3.7210   26.2330 C.3       1 SU1        -0.0469
     32 C12        10.8120    5.4240   23.5350 C.3       1 SU1        -0.0179
     33 C13        11.7120    4.9870   22.4300 C.3       1 SU1         0.0070
     34 C14        12.4730    6.1130   21.7160 C.2       1 SU1         0.0365
     35 O3         11.9370    7.2490   21.5710 O.co2     1 SU1        -0.5689
     36 O4         13.6100    5.8150   21.2600 O.co2     1 SU1        -0.5689
     37 H17        12.4524    4.2907   22.8506 H         1 SU1         0.0450
@<TRIPOS>BOND
     1   15    1 1  
     2   25    2 1  
     3   19    3 1  
     4   20    4 1  
     5   21    5 1  
     6   22    6 1  
     7   26    7 1  
     8   30    8 1  
     9   31    9 1  
    10   31   10 1  
    11   31   11 1  
    12   32   12 1  
    13   32   13 1  
    14   33   14 1  
    15   23   15 1  
    16   16   15 am 
    17   18   16 1  
    18   16   17 2  
    19   25   18 2  
    20   18   24 1  
    21   24   23 ar 
    22   24   19 ar 
    23   19   20 ar 
    24   20   21 ar 
    25   22   21 ar 
    26   23   22 ar 
    27   27   25 1  
    28   27   26 1  
    29   28   27 2  
    30   32   28 1  
    31   28   29 1  
    32   29   31 1  
    33   29   30 2  
    34   30   26 1  
    35   32   33 1  
    36   33   34 1  
    37   34   36 ar 
    38   34   35 ar 
    39   33   37 1  
@<TRIPOS>SUBSTRUCTURE
     1 SU1         1

