### 
### Created by X-TOOL on Mon Sep 10 21:12:47 2018
### 

@<TRIPOS>MOLECULE
1fh7_ligand
   38    39     1     0     0
SMALL
GAST_HUCK


@<TRIPOS>ATOM
      1 C1         17.1220   65.3790   38.5060 C.3       1 XYP         0.1882
      2 C2         16.8660   64.3700   39.6420 C.3       1 XYP         0.1341
      3 C3         15.4110   63.8560   39.6120 C.3       1 XYP         0.1137
      4 C4         14.4530   65.0350   39.5620 C.3       1 XYP         0.1069
      5 C5         14.7990   65.9160   38.3550 C.3       1 XYP         0.0792
      6 O2         17.7440   63.2640   39.4700 O.3       1 XYP        -0.3841
      7 O3         15.1520   63.0910   40.7840 O.3       1 XYP        -0.3864
      8 O4         13.1100   64.5590   39.4820 O.3       1 XYP        -0.3869
      9 O5         16.1330   66.4110   38.5210 O.3       1 XYP        -0.3461
     10 C1         20.5600   68.0800   35.7980 C.3       1 XDN        -0.0044
     11 C2         20.2130   68.8110   37.0190 C.3       1 XDN         0.1231
     12 O2         21.1550   69.7400   37.4210 O.3       1 XDN        -0.3838
     13 C3         19.7320   67.9200   38.1950 C.3       1 XDN         0.1171
     14 O3         19.1130   68.7080   39.2010 O.3       1 XDN        -0.3862
     15 C4         18.7040   66.9000   37.6700 C.3       1 XDN         0.1296
     16 O4         18.4290   65.9560   38.6960 O.3       1 XDN        -0.3375
     17 C5         19.3030   66.1600   36.4410 C.3       1 XDN        -0.0040
     18 N5         19.6740   67.1090   35.4040 N.4       1 XDN         0.2308
     19 H1         17.0859   64.8576   37.5381 H         1 XYP         0.0937
     20 H2         17.0608   64.8542   40.6103 H         1 XYP         0.0671
     21 H3         15.2640   63.2260   38.7223 H         1 XYP         0.0647
     22 H4         14.5641   65.6300   40.4805 H         1 XYP         0.0643
     23 H5         14.0950   66.7592   38.2971 H         1 XYP         0.0587
     24 H6         14.7361   65.3216   37.4316 H         1 XYP         0.0587
     25 H7         17.5966   62.6331   40.1648 H         1 XYP         0.2101
     26 H8         14.2561   62.7757   40.7634 H         1 XYP         0.2100
     27 H9         13.0072   64.0350   38.6963 H         1 XYP         0.2100
     28 H10        20.6429   68.8113   34.9805 H         1 XYP         0.0840
     29 H11        21.5359   67.5990   35.9601 H         1 XYP         0.0840
     30 H12        19.3317   69.4066   36.7387 H         1 XYP         0.0674
     31 H13        21.9105   69.2887   37.7790 H         1 XYP         0.2101
     32 H14        20.5944   67.3897   38.6252 H         1 XYP         0.0649
     33 H15        19.7372   69.3421   39.5337 H         1 XYP         0.2100
     34 H16        17.7778   67.4173   37.3793 H         1 XYP         0.0678
     35 H17        18.5548   65.4605   36.0401 H         1 XYP         0.0840
     36 H18        20.1964   65.6007   36.7557 H         1 XYP         0.0840
     37 H19        20.0910   66.5947   34.6439 H         1 XYP         0.2015
     38 H20        18.8344   67.5639   35.0813 H         1 XYP         0.2015
@<TRIPOS>BOND
     1    1    9 1  
     2    1    2 1  
     3    2    6 1  
     4    2    3 1  
     5    3    7 1  
     6    3    4 1  
     7    4    8 1  
     8    5    4 1  
     9    9    5 1  
    10   18   10 1  
    11   11   10 1  
    12   13   11 1  
    13   11   12 1  
    14   15   13 1  
    15   13   14 1  
    16   15   17 1  
    17   16   15 1  
    18   17   18 1  
    19   16    1 1  
    20    1   19 1  
    21    2   20 1  
    22    3   21 1  
    23    4   22 1  
    24    5   23 1  
    25    5   24 1  
    26    6   25 1  
    27    7   26 1  
    28    8   27 1  
    29   10   28 1  
    30   10   29 1  
    31   11   30 1  
    32   12   31 1  
    33   13   32 1  
    34   14   33 1  
    35   15   34 1  
    36   17   35 1  
    37   17   36 1  
    38   18   37 1  
    39   18   38 1  
@<TRIPOS>SUBSTRUCTURE
     1 XYP         1

