### 
### Created by X-TOOL on Mon Sep 10 21:12:47 2018
### 

@<TRIPOS>MOLECULE
1fh8_ligand
   37    38     1     0     0
SMALL
GAST_HUCK


@<TRIPOS>ATOM
      1 C1        -62.5840   16.9810   57.3620 C.3       1 XYP         0.1879
      2 C2        -61.5230   16.8090   58.4660 C.3       1 XYP         0.1341
      3 C3        -60.9540   15.3920   58.4700 C.3       1 XYP         0.1137
      4 C4        -62.0830   14.3440   58.4220 C.3       1 XYP         0.1069
      5 C5        -63.0670   14.6550   57.2980 C.3       1 XYP         0.0792
      6 O2        -60.4710   17.7510   58.2810 O.3       1 XYP        -0.3841
      7 O3        -60.1920   15.1950   59.6520 O.3       1 XYP        -0.3864
      8 O4        -61.5430   13.0350   58.2460 O.3       1 XYP        -0.3869
      9 O5        -63.6040   15.9790   57.4720 O.3       1 XYP        -0.3461
     10 N1        -65.0070   20.4660   54.4730 N.4       1 XIF         0.2289
     11 C2        -65.9520   19.9430   55.5110 C.3       1 XIF        -0.0046
     12 C3        -65.0790   19.5820   56.7600 C.3       1 XIF         0.1210
     13 O3        -65.8800   19.0610   57.8140 O.3       1 XIF        -0.3839
     14 C4        -63.9760   18.5830   56.3350 C.3       1 XIF         0.0974
     15 O4        -63.2060   18.2750   57.4890 O.3       1 XIF        -0.3425
     16 C5        -63.1180   19.1780   55.2020 C.3       1 XIF         0.0164
     17 C6        -64.0450   19.4720   54.0610 C.3       1 XIF        -0.0311
     18 H1        -62.0973   16.8997   56.3789 H         1 XYP         0.0937
     19 H2        -61.9991   16.9969   59.4396 H         1 XYP         0.0671
     20 H3        -60.3057   15.2633   57.5908 H         1 XYP         0.0647
     21 H4        -62.6250   14.3739   59.3787 H         1 XYP         0.0643
     22 H5        -63.8876   13.9227   57.3181 H         1 XYP         0.0587
     23 H6        -62.5467   14.5963   56.3306 H         1 XYP         0.0587
     24 H7        -59.8220   17.6378   58.9655 H         1 XYP         0.2101
     25 H8        -59.8374   14.3137   59.6556 H         1 XYP         0.2100
     26 H9        -62.2513   12.4025   58.2186 H         1 XYP         0.2100
     27 H10       -65.5384   20.7570   53.6674 H         1 XYP         0.2014
     28 H11       -64.5129   21.2579   54.8535 H         1 XYP         0.2014
     29 H12       -66.4704   19.0477   55.1373 H         1 XYP         0.0840
     30 H13       -66.6926   20.7126   55.7739 H         1 XYP         0.0840
     31 H14       -64.5944   20.5000   57.1238 H         1 XYP         0.0673
     32 H15       -66.5446   19.6975   58.0494 H         1 XYP         0.2101
     33 H16       -64.4461   17.6602   55.9644 H         1 XYP         0.0627
     34 H17       -62.3507   18.4546   54.8890 H         1 XYP         0.0343
     35 H18       -62.6318   20.1041   55.5424 H         1 XYP         0.0343
     36 H19       -63.4666   19.8523   53.2061 H         1 XYP         0.0815
     37 H20       -64.5705   18.5512   53.7677 H         1 XYP         0.0815
@<TRIPOS>BOND
     1    1    9 1  
     2    1    2 1  
     3    2    6 1  
     4    2    3 1  
     5    3    7 1  
     6    3    4 1  
     7    4    8 1  
     8    5    4 1  
     9    9    5 1  
    10   17   10 1  
    11   11   10 1  
    12   12   11 1  
    13   14   12 1  
    14   12   13 1  
    15   14   16 1  
    16   15   14 1  
    17   16   17 1  
    18   15    1 1  
    19    1   18 1  
    20    2   19 1  
    21    3   20 1  
    22    4   21 1  
    23    5   22 1  
    24    5   23 1  
    25    6   24 1  
    26    7   25 1  
    27    8   26 1  
    28   10   27 1  
    29   10   28 1  
    30   11   29 1  
    31   11   30 1  
    32   12   31 1  
    33   13   32 1  
    34   14   33 1  
    35   16   34 1  
    36   16   35 1  
    37   17   36 1  
    38   17   37 1  
@<TRIPOS>SUBSTRUCTURE
     1 XYP         1

