### 
### Created by X-TOOL on Mon Sep 10 21:12:47 2018
### 

@<TRIPOS>MOLECULE
1fhd_ligand
   39    41     1     0     0
SMALL
GAST_HUCK


@<TRIPOS>ATOM
      1 C1        -62.3400   16.9760   57.1640 C.3       1 XYP         0.1880
      2 C2        -61.3240   16.7960   58.2880 C.3       1 XYP         0.1341
      3 C3        -60.7700   15.3610   58.2970 C.3       1 XYP         0.1137
      4 C4        -61.9050   14.3280   58.2450 C.3       1 XYP         0.1069
      5 C5        -62.8660   14.6490   57.0970 C.3       1 XYP         0.0792
      6 O2        -60.2620   17.7200   58.0980 O.3       1 XYP        -0.3841
      7 O3        -60.0170   15.1620   59.4830 O.3       1 XYP        -0.3864
      8 O4        -61.3730   13.0200   58.0770 O.3       1 XYP        -0.3869
      9 O5        -63.3760   15.9880   57.2570 O.3       1 XYP        -0.3461
     10 C1        -64.9770   19.6790   53.8930 C.2       1 XIM         0.1462
     11 C2        -65.7950   19.7300   55.2360 C.3       1 XIM         0.1586
     12 C3        -64.8270   19.5360   56.4280 C.3       1 XIM         0.1253
     13 C4        -63.7190   18.5240   56.0950 C.3       1 XIM         0.1198
     14 C5        -62.7790   19.0510   54.9930 C.3       1 XIM         0.0863
     15 N1        -63.6240   19.3650   53.8800 N.pl3     1 XIM        -0.2456
     16 C17       -63.3290   19.4260   52.5390 C.2       1 XIM         0.0281
     17 C18       -64.4290   19.7520   51.8260 C.2       1 XIM        -0.0365
     18 N21       -65.4620   19.9120   52.6610 N.2       1 XIM        -0.3367
     19 O2        -66.5530   20.9040   55.4460 O.3       1 XIM        -0.3699
     20 O3        -65.5560   19.0870   57.5520 O.3       1 XIM        -0.3839
     21 O4        -62.9370   18.2880   57.2480 O.3       1 XIM        -0.3398
     22 H1        -61.8262   16.8711   56.1970 H         1 XYP         0.0937
     23 H2        -61.8134   16.9964   59.2525 H         1 XYP         0.0671
     24 H3        -60.1184   15.2225   57.4216 H         1 XYP         0.0647
     25 H4        -62.4607   14.3661   59.1936 H         1 XYP         0.0643
     26 H5        -63.7022   13.9345   57.1082 H         1 XYP         0.0587
     27 H6        -62.3311   14.5725   56.1389 H         1 XYP         0.0587
     28 H7        -59.6240   17.6149   58.7940 H         1 XYP         0.2101
     29 H8        -60.5776   15.2936   60.2385 H         1 XYP         0.2100
     30 H9        -62.0847   12.3914   58.0464 H         1 XYP         0.2100
     31 H10       -66.5005   18.8862   55.2186 H         1 XYP         0.0858
     32 H11       -64.3602   20.5035   56.6647 H         1 XYP         0.0675
     33 H12       -64.1818   17.5840   55.7600 H         1 XYP         0.0654
     34 H13       -62.0464   18.2798   54.7127 H         1 XYP         0.0644
     35 H14       -62.2497   19.9512   55.3386 H         1 XYP         0.0644
     36 H15       -62.3455   19.2377   52.1109 H         1 XYP         0.0796
     37 H16       -64.4687   19.8664   50.7437 H         1 XYP         0.0408
     38 H17       -65.9729   21.6563   55.4575 H         1 XYP         0.2138
     39 H18       -66.2156   19.7321   57.7786 H         1 XYP         0.2103
@<TRIPOS>BOND
     1    1    9 1  
     2    1    2 1  
     3    2    6 1  
     4    2    3 1  
     5    3    7 1  
     6    3    4 1  
     7    4    8 1  
     8    5    4 1  
     9    9    5 1  
    10   10   18 2  
    11   15   10 1  
    12   11   10 1  
    13   11   19 1  
    14   12   11 1  
    15   12   20 1  
    16   13   12 1  
    17   21   13 1  
    18   13   14 1  
    19   14   15 1  
    20   15   16 1  
    21   16   17 2  
    22   17   18 1  
    23   21    1 1  
    24    1   22 1  
    25    2   23 1  
    26    3   24 1  
    27    4   25 1  
    28    5   26 1  
    29    5   27 1  
    30    6   28 1  
    31    7   29 1  
    32    8   30 1  
    33   11   31 1  
    34   12   32 1  
    35   13   33 1  
    36   14   34 1  
    37   14   35 1  
    38   16   36 1  
    39   17   37 1  
    40   19   38 1  
    41   20   39 1  
@<TRIPOS>SUBSTRUCTURE
     1 XYP         1

