### 
### Created by X-TOOL on Mon Sep 10 21:12:45 2018
### 

@<TRIPOS>MOLECULE
1fig_ligand
   26    27     1     0     0
SMALL
GAST_HUCK


@<TRIPOS>ATOM
      1 C1         14.4280   47.5500    9.3180 C.3       1 TSA        -0.0155
      2 C2         14.4650   49.0020    9.8230 C.2       1 TSA        -0.0747
      3 C3         13.7930   49.9960    9.2200 C.2       1 TSA         0.0158
      4 C4         12.8690   49.7480    8.1380 C.3       1 TSA         0.1561
      5 O5         13.4740   50.2480    6.9200 O.3       1 TSA        -0.3559
      6 C5         12.5490   48.2730    7.9050 C.3       1 TSA         0.1028
      7 C6         13.8150   47.4930    7.9810 C.3       1 TSA        -0.0484
      8 O7         11.5280   47.7600    8.8750 O.3       1 TSA        -0.3538
      9 C8         11.9130   47.1500   10.2250 C.3       1 TSA         0.1008
     10 C9         13.5060   46.6700   10.2510 C.3       1 TSA        -0.0440
     11 C10        15.8850   47.0170    9.1670 C.2       1 TSA        -0.0056
     12 O1         16.4160   46.3840   10.0720 O.co2     1 TSA        -0.5698
     13 O2         16.5540   47.2070    8.1490 O.co2     1 TSA        -0.5698
     14 C11        11.4160   47.7780   11.5670 C.2       1 TSA         0.0624
     15 O3         10.6750   47.1150   12.3230 O.co2     1 TSA        -0.5664
     16 O4         11.6990   48.9450   11.8560 O.co2     1 TSA        -0.5664
     17 H1         15.0601   49.2335   10.7051 H         1 TSA         0.0480
     18 H2         13.9494   51.0197    9.5569 H         1 TSA         0.1560
     19 H3         11.9319   50.2856    8.3448 H         1 TSA         0.1059
     20 H4         12.8850   50.0970    6.1900 H         1 TSA         0.2180
     21 H5         12.1340   48.1647    6.8921 H         1 TSA         0.0670
     22 H6         13.5984   46.4428    7.7358 H         1 TSA         0.0149
     23 H7         14.5264   47.9015    7.2482 H         1 TSA         0.0149
     24 H8         11.3613   46.1985   10.2105 H         1 TSA         0.0754
     25 H9         13.8782   46.7444   11.2834 H         1 TSA         0.0162
     26 H10        13.5630   45.6241    9.9152 H         1 TSA         0.0162
@<TRIPOS>BOND
     1    1    2 1  
     2    1    7 1  
     3    1   10 1  
     4    1   11 1  
     5    2    3 2  
     6    3    4 1  
     7    4    5 1  
     8    4    6 1  
     9    6    7 1  
    10    6    8 1  
    11    8    9 1  
    12    9   10 1  
    13    9   14 1  
    14   11   12 ar 
    15   11   13 ar 
    16   14   15 ar 
    17   14   16 ar 
    18    2   17 1  
    19    3   18 1  
    20    4   19 1  
    21    5   20 1  
    22    6   21 1  
    23    7   22 1  
    24    7   23 1  
    25    9   24 1  
    26   10   25 1  
    27   10   26 1  
@<TRIPOS>SUBSTRUCTURE
     1 TSA         1

