### 
### Created by X-TOOL on Mon Sep 10 21:12:47 2018
### 

@<TRIPOS>MOLECULE
1fj4_ligand
   28    28     1     0     0
SMALL
GAST_HUCK


@<TRIPOS>ATOM
      1 S1          6.2170  -19.4860   -0.4880 S.3       1 TLM        -0.1420
      2 C1          7.0270  -18.5720    0.7860 C.2       1 TLM         0.1938
      3 C2          6.6290  -19.0160    2.0970 C.2       1 TLM         0.0642
      4 C3          5.7900  -20.0690    2.0550 C.2       1 TLM         0.0431
      5 C4          5.3860  -20.6510    0.7160 C.3       1 TLM        -0.0011
      6 C5          3.8840  -20.6960    0.4040 C.2       1 TLM        -0.1178
      7 C6          3.1800  -20.8520   -0.7410 C.2       1 TLM        -0.0181
      8 C7          1.6930  -20.7190   -0.6320 C.2       1 TLM        -0.0071
      9 C8          0.7810  -20.8290   -1.6020 C.2       1 TLM        -0.0529
     10 O1          7.8230  -17.6860    0.5180 O.2       1 TLM        -0.3545
     11 C9          7.1190  -18.3340    3.3280 C.3       1 TLM        -0.0054
     12 O2          5.2870  -20.6170    3.1700 O.3       1 TLM        -0.3496
     13 C10         6.0340  -22.0480    0.5840 C.3       1 TLM        -0.1105
     14 C11         3.7580  -21.1460   -2.0940 C.3       1 TLM        -0.0051
     15 H1          3.2555  -20.5781    1.2855 H         1 TLM         0.0341
     16 H2          1.3059  -20.5057    0.3633 H         1 TLM         0.0763
     17 H3         -0.2763  -20.7062   -1.3718 H         1 TLM         0.0985
     18 H4          1.0949  -21.0414   -2.6229 H         1 TLM         0.0985
     19 H5          7.7903  -17.5089    3.0475 H         1 TLM         0.0485
     20 H6          7.6657  -19.0549    3.9537 H         1 TLM         0.0485
     21 H7          6.2628  -17.9347    3.8915 H         1 TLM         0.0485
     22 H8          5.6237  -20.1546    3.9285 H         1 TLM         0.2477
     23 H9          5.5532  -22.7432    1.2880 H         1 TLM         0.0013
     24 H10         7.1074  -21.9775    0.8138 H         1 TLM         0.0013
     25 H11         5.9025  -22.4176   -0.4437 H         1 TLM         0.0013
     26 H12         4.8532  -21.2150   -2.0177 H         1 TLM         0.0529
     27 H13         3.4892  -20.3385   -2.7909 H         1 TLM         0.0529
     28 H14         3.3555  -22.1000   -2.4653 H         1 TLM         0.0529
@<TRIPOS>BOND
     1    1    2 1  
     2    1    5 1  
     3    2    3 1  
     4    2   10 2  
     5    3    4 2  
     6    3   11 1  
     7    4    5 1  
     8    4   12 1  
     9    5    6 1  
    10    5   13 1  
    11    6    7 2  
    12    7    8 1  
    13    7   14 1  
    14    8    9 2  
    15    6   15 1  
    16    8   16 1  
    17    9   17 1  
    18    9   18 1  
    19   11   19 1  
    20   11   20 1  
    21   11   21 1  
    22   12   22 1  
    23   13   23 1  
    24   13   24 1  
    25   13   25 1  
    26   14   26 1  
    27   14   27 1  
    28   14   28 1  
@<TRIPOS>SUBSTRUCTURE
     1 TLM         1

