### 
### Created by X-TOOL on Mon Sep 10 21:12:44 2018
### 

@<TRIPOS>MOLECULE
1fkb_ligand
  144   147     1     0     0
SMALL
GAST_HUCK


@<TRIPOS>ATOM
      1 C1          4.6330    8.5000   12.8470 C.2       1 RAP         0.2604
      2 O1          4.2640    9.5930   13.6790 O.3       1 RAP        -0.2690
      3 O2          5.3670    8.7260   11.8880 O.2       1 RAP        -0.3678
      4 C2          4.1770    7.0700   13.1350 C.3       1 RAP         0.1457
      5 C3          3.7200    6.3740   11.8620 C.3       1 RAP        -0.0106
      6 C4          2.3540    6.8320   11.3720 C.3       1 RAP        -0.0469
      7 C5          1.3600    6.6530   12.5050 C.3       1 RAP        -0.0320
      8 C6          1.7830    7.4300   13.7130 C.3       1 RAP         0.0376
      9 N7          3.1050    6.9340   14.1270 N.am      1 RAP        -0.2402
     10 C8          3.3850    6.5490   15.3820 C.2       1 RAP         0.2778
     11 O3          4.5520    6.2370   15.6540 O.2       1 RAP        -0.3605
     12 C9          2.3970    6.4090   16.3810 C.2       1 RAP         0.2928
     13 O4          1.7830    5.3390   16.4740 O.2       1 RAP        -0.2853
     14 C10         2.0560    7.5410   17.3680 C.3       1 RAP         0.2514
     15 O5          1.2800    8.4570   16.6310 O.3       1 RAP        -0.3442
     16 O6          1.3100    6.9920   18.4580 O.3       1 RAP        -0.3640
     17 C11         3.3320    8.2820   17.9400 C.3       1 RAP         0.0171
     18 C12         2.9420    9.5910   18.6640 C.3       1 RAP        -0.0442
     19 C13         2.0100   10.4230   17.7950 C.3       1 RAP        -0.0262
     20 C14         0.8420    9.6280   17.2210 C.3       1 RAP         0.0648
     21 C15         0.1930   10.4130   16.0940 C.3       1 RAP         0.0138
     22 C16        -0.5820   11.6640   16.4900 C.3       1 RAP         0.1022
     23 O7         -1.6270   11.2720   17.3240 O.3       1 RAP        -0.3621
     24 C17        -1.1450   12.3710   15.2760 C.2       1 RAP        -0.0250
     25 C18        -0.6720   13.5710   14.9670 C.2       1 RAP        -0.0775
     26 C19        -1.0960   14.3670   13.8070 C.2       1 RAP        -0.0996
     27 C20        -0.5860   15.5780   13.6340 C.2       1 RAP        -0.0996
     28 C21        -0.9000   16.3770   12.4350 C.2       1 RAP        -0.0930
     29 C22        -0.2480   17.4880   12.1490 C.2       1 RAP        -0.0860
     30 C23        -0.4500   18.2890   10.8810 C.3       1 RAP        -0.0173
     31 C24         0.9110   18.4010   10.2160 C.3       1 RAP        -0.0224
     32 C25         1.6740   17.1120    9.9750 C.3       1 RAP         0.0349
     33 C26         3.1570   17.3910    9.7710 C.2       1 RAP         0.1412
     34 O8          3.6110   17.6690    8.6630 O.2       1 RAP        -0.3883
     35 C27         4.0480   17.2970   11.0050 C.3       1 RAP         0.1649
     36 O9          5.2100   18.0500   10.7780 O.3       1 RAP        -0.3559
     37 C28         4.5130   15.8410   11.3290 C.3       1 RAP         0.1228
     38 O10         4.8240   15.2000   10.0840 O.3       1 RAP        -0.3755
     39 C29         3.4620   15.0140   12.0940 C.2       1 RAP        -0.0479
     40 C30         2.8080   13.9890   11.5490 C.2       1 RAP        -0.0859
     41 C31         1.7730   13.0420   12.1750 C.3       1 RAP         0.0356
     42 C32         2.4330   11.7010   12.4950 C.2       1 RAP         0.1142
     43 O11         2.2640   10.7010   11.7910 O.2       1 RAP        -0.3898
     44 C33         3.3580   11.6930   13.7070 C.3       1 RAP         0.0533
     45 C34         4.6300   10.9090   13.4550 C.3       1 RAP         0.1058
     46 C35         5.8460   11.1690   14.3670 C.3       1 RAP        -0.0106
     47 C36         6.5510   12.4800   14.0270 C.3       1 RAP        -0.0447
     48 C37         7.2100   12.5860   12.6500 C.3       1 RAP        -0.0382
     49 C38         7.8120   13.9830   12.4610 C.3       1 RAP        -0.0213
     50 C39         8.3860   14.2020   11.0590 C.3       1 RAP         0.0844
     51 O12         9.0410   15.4440   11.0860 O.3       1 RAP        -0.3772
     52 C40         9.3990   13.0570   10.7110 C.3       1 RAP         0.0813
     53 O13         9.8030   13.1890    9.3490 O.3       1 RAP        -0.3892
     54 C41         8.8190   11.6450   10.9300 C.3       1 RAP        -0.0242
     55 C42         8.2430   11.5050   12.3320 C.3       1 RAP        -0.0477
     56 C43         4.2580    7.4120   18.8400 C.3       1 RAP        -0.0585
     57 C44        -2.2570   11.6210   14.5220 C.3       1 RAP        -0.0204
     58 C45        -1.0140   19.6680   11.1900 C.3       1 RAP        -0.0527
     59 C46         1.0990   16.3270    8.7930 C.3       1 RAP        -0.0461
     60 C47         3.2220   15.4750   13.5190 C.3       1 RAP        -0.0370
     61 C48         0.6250   12.8300   11.1750 C.3       1 RAP        -0.0434
     62 C49         5.4820   11.1300   15.8240 C.3       1 RAP        -0.0596
     63 C50        -2.1230   12.2430   18.1890 C.3       1 RAP         0.0405
     64 C51         5.1340   19.3870   11.1300 C.3       1 RAP         0.0402
     65 C52         8.3520   16.5240   10.5560 C.3       1 RAP         0.0369
     66 H1          5.0537    6.5322   13.5251 H         1 RAP         0.0820
     67 H2          3.6751    5.2919   12.0545 H         1 RAP         0.0314
     68 H3          4.4581    6.5755   11.0717 H         1 RAP         0.0314
     69 H4          2.0461    6.2260   10.5072 H         1 RAP         0.0268
     70 H5          2.3990    7.8916   11.0800 H         1 RAP         0.0268
     71 H6          1.2992    5.5861   12.7659 H         1 RAP         0.0285
     72 H7          0.3717    7.0071   12.1767 H         1 RAP         0.0285
     73 H8          1.0568    7.2826   14.5259 H         1 RAP         0.0526
     74 H9          1.8453    8.5002   13.4666 H         1 RAP         0.0526
     75 H10         0.5451    6.5404   18.1211 H         1 RAP         0.2100
     76 H11         3.9354    8.5669   17.0655 H         1 RAP         0.0335
     77 H12         3.8517   10.1713   18.8779 H         1 RAP         0.0269
     78 H13         2.4335    9.3450   19.6079 H         1 RAP         0.0269
     79 H14         2.5920   10.8390   16.9594 H         1 RAP         0.0290
     80 H15         1.6057   11.2442   18.4051 H         1 RAP         0.0290
     81 H16         0.1149    9.4116   18.0176 H         1 RAP         0.0597
     82 H17        -0.5049    9.7384   15.5765 H         1 RAP         0.0347
     83 H18         0.9892   10.7199   15.3998 H         1 RAP         0.0347
     84 H19         0.0861   12.3520   17.0288 H         1 RAP         0.0829
     85 H20         0.0866   13.9978   15.6214 H         1 RAP         0.0303
     86 H21        -1.8200   13.9671   13.0986 H         1 RAP         0.0479
     87 H22         0.0779   15.9910   14.3920 H         1 RAP         0.0378
     88 H23        -1.6918   16.0409   11.7672 H         1 RAP         0.0403
     89 H24         0.4816   17.8515   12.8711 H         1 RAP         0.0585
     90 H25        -1.1473   17.7599   10.2149 H         1 RAP         0.0469
     91 H26         1.5383   19.0426   10.8523 H         1 RAP         0.0321
     92 H27         0.7632   18.8853    9.2395 H         1 RAP         0.0321
     93 H28         1.5685   16.4874   10.8743 H         1 RAP         0.0530
     94 H29         3.4989   17.7002   11.8687 H         1 RAP         0.0881
     95 H30         5.4213   15.8938   11.9471 H         1 RAP         0.0797
     96 H31         5.1107   14.3098   10.2504 H         1 RAP         0.2133
     97 H32         3.0422   13.7934   10.5036 H         1 RAP         0.0266
     98 H33         1.3784   13.4861   13.1008 H         1 RAP         0.0597
     99 H34         2.8252   11.2392   14.5556 H         1 RAP         0.0524
    100 H35         3.6255   12.7308   13.9546 H         1 RAP         0.0524
    101 H36         4.9399   11.0657   12.4113 H         1 RAP         0.0678
    102 H37         6.5632   10.3547   14.1867 H         1 RAP         0.0328
    103 H38         7.3353   12.6388   14.7817 H         1 RAP         0.0271
    104 H39         5.8046   13.2848   14.0989 H         1 RAP         0.0271
    105 H40         6.4047   12.4719   11.9094 H         1 RAP         0.0302
    106 H41         8.6194   14.1191   13.1955 H         1 RAP         0.0294
    107 H42         7.0250   14.7308   12.6383 H         1 RAP         0.0294
    108 H43         7.5771   14.2156   10.3137 H         1 RAP         0.0622
    109 H44        10.2807   13.1702   11.3589 H         1 RAP         0.0619
    110 H45         9.0406   13.1239    8.7860 H         1 RAP         0.2099
    111 H46         9.6187   10.9021   10.7936 H         1 RAP         0.0291
    112 H47         8.0218   11.4650   10.1937 H         1 RAP         0.0291
    113 H48         7.7612   10.5199   12.4189 H         1 RAP         0.0269
    114 H49         9.0646   11.5769   13.0599 H         1 RAP         0.0269
    115 H50         4.5233    6.4870   18.3071 H         1 RAP         0.0232
    116 H51         3.7315    7.1599   19.7723 H         1 RAP         0.0232
    117 H52         5.1733    7.9744   19.0763 H         1 RAP         0.0232
    118 H53        -2.5890   12.2238   13.6638 H         1 RAP         0.0458
    119 H54        -3.1066   11.4478   15.1989 H         1 RAP         0.0458
    120 H55        -1.8705   10.6553   14.1641 H         1 RAP         0.0458
    121 H56        -1.9980   19.5625   11.6702 H         1 RAP         0.0258
    122 H57        -1.1214   20.2381   10.2554 H         1 RAP         0.0258
    123 H58        -0.3305   20.2003   11.8678 H         1 RAP         0.0258
    124 H59         1.6774   15.4022    8.6509 H         1 RAP         0.0257
    125 H60         1.1585   16.9403    7.8818 H         1 RAP         0.0257
    126 H61         0.0480   16.0744    8.9970 H         1 RAP         0.0257
    127 H62         2.4619   14.8335   13.9888 H         1 RAP         0.0379
    128 H63         2.8694   16.5169   13.5129 H         1 RAP         0.0379
    129 H64         4.1606   15.4088   14.0888 H         1 RAP         0.0379
    130 H65         0.1533   13.7974   10.9479 H         1 RAP         0.0271
    131 H66        -0.1221   12.1516   11.6128 H         1 RAP         0.0271
    132 H67         1.0222   12.3893   10.2487 H         1 RAP         0.0271
    133 H68         4.9759   10.1799   16.0502 H         1 RAP         0.0233
    134 H69         4.8089   11.9684   16.0564 H         1 RAP         0.0233
    135 H70         6.3947   11.2131   16.4323 H         1 RAP         0.0233
    136 H71        -2.9387   11.8158   18.7908 H         1 RAP         0.0527
    137 H72        -2.5048   13.0936   17.6053 H         1 RAP         0.0527
    138 H73        -1.3177   12.5870   18.8546 H         1 RAP         0.0527
    139 H74         6.0932   19.8789   10.9111 H         1 RAP         0.0526
    140 H75         4.9156   19.4714   12.2048 H         1 RAP         0.0526
    141 H76         4.3329   19.8729   10.5538 H         1 RAP         0.0526
    142 H77         8.9709   17.4297   10.6378 H         1 RAP         0.0524
    143 H78         7.4142   16.6694   11.1122 H         1 RAP         0.0524
    144 H79         8.1243   16.3300    9.4975 H         1 RAP         0.0524
@<TRIPOS>BOND
     1    1    3 2  
     2    4    1 1  
     3    4    5 1  
     4    9    4 1  
     5    5    6 1  
     6    7    6 1  
     7    8    7 1  
     8    9    8 1  
     9   10    9 am 
    10   10   11 2  
    11   12   10 1  
    12   12   13 2  
    13   14   12 1  
    14   14   16 1  
    15   14   17 1  
    16   18   17 1  
    17   17   56 1  
    18   19   18 1  
    19   20   19 1  
    20   21   20 1  
    21   22   21 1  
    22   22   23 1  
    23   24   22 1  
    24   23   63 1  
    25   24   57 1  
    26   26   25 1  
    27   27   26 2  
    28   28   27 1  
    29   29   30 1  
    30   30   31 1  
    31   30   58 1  
    32   31   32 1  
    33   32   33 1  
    34   32   59 1  
    35   33   34 2  
    36   33   35 1  
    37   35   36 1  
    38   35   37 1  
    39   36   64 1  
    40   37   38 1  
    41   37   39 1  
    42   39   60 1  
    43   41   40 1  
    44   42   41 1  
    45   41   61 1  
    46   42   43 2  
    47   44   42 1  
    48   45   44 1  
    49   45   46 1  
    50   46   47 1  
    51   46   62 1  
    52   47   48 1  
    53   48   49 1  
    54   48   55 1  
    55   49   50 1  
    56   50   51 1  
    57   50   52 1  
    58   51   65 1  
    59   52   53 1  
    60   54   52 1  
    61   55   54 1  
    62    1    2 1  
    63    2   45 1  
    64   20   15 1  
    65   15   14 1  
    66   25   24 2  
    67   28   29 2  
    68   39   40 2  
    69    4   66 1  
    70    5   67 1  
    71    5   68 1  
    72    6   69 1  
    73    6   70 1  
    74    7   71 1  
    75    7   72 1  
    76    8   73 1  
    77    8   74 1  
    78   16   75 1  
    79   17   76 1  
    80   18   77 1  
    81   18   78 1  
    82   19   79 1  
    83   19   80 1  
    84   20   81 1  
    85   21   82 1  
    86   21   83 1  
    87   22   84 1  
    88   25   85 1  
    89   26   86 1  
    90   27   87 1  
    91   28   88 1  
    92   29   89 1  
    93   30   90 1  
    94   31   91 1  
    95   31   92 1  
    96   32   93 1  
    97   35   94 1  
    98   37   95 1  
    99   38   96 1  
   100   40   97 1  
   101   41   98 1  
   102   44   99 1  
   103   44  100 1  
   104   45  101 1  
   105   46  102 1  
   106   47  103 1  
   107   47  104 1  
   108   48  105 1  
   109   49  106 1  
   110   49  107 1  
   111   50  108 1  
   112   52  109 1  
   113   53  110 1  
   114   54  111 1  
   115   54  112 1  
   116   55  113 1  
   117   55  114 1  
   118   56  115 1  
   119   56  116 1  
   120   56  117 1  
   121   57  118 1  
   122   57  119 1  
   123   57  120 1  
   124   58  121 1  
   125   58  122 1  
   126   58  123 1  
   127   59  124 1  
   128   59  125 1  
   129   59  126 1  
   130   60  127 1  
   131   60  128 1  
   132   60  129 1  
   133   61  130 1  
   134   61  131 1  
   135   61  132 1  
   136   62  133 1  
   137   62  134 1  
   138   62  135 1  
   139   63  136 1  
   140   63  137 1  
   141   63  138 1  
   142   64  139 1  
   143   64  140 1  
   144   64  141 1  
   145   65  142 1  
   146   65  143 1  
   147   65  144 1  
@<TRIPOS>SUBSTRUCTURE
     1 RAP         1

