### 
### Created by X-TOOL on Mon Sep 10 21:12:44 2018
### 

@<TRIPOS>MOLECULE
1fkf_ligand
  126   129     1     0     0
SMALL
GAST_HUCK


@<TRIPOS>ATOM
      1 C1         19.9640   28.6220   21.7930 C.2       1 FK5         0.2621
      2 C2         18.5910   29.2420   21.9360 C.3       1 FK5         0.1459
      3 C3         17.9380   29.3520   20.5600 C.3       1 FK5        -0.0106
      4 C4         18.5160   30.5100   19.7600 C.3       1 FK5        -0.0469
      5 C5         18.2610   31.8130   20.4910 C.3       1 FK5        -0.0320
      6 C6         18.9790   31.7220   21.8230 C.3       1 FK5         0.0376
      7 C8         17.8950   30.6410   23.7950 C.2       1 FK5         0.2778
      8 C9         17.7270   31.9530   24.5080 C.2       1 FK5         0.2928
      9 C10        18.8060   32.4190   25.5090 C.3       1 FK5         0.2516
     10 C11        19.4320   31.2870   26.3300 C.3       1 FK5         0.0194
     11 C12        20.7730   31.7490   26.9050 C.3       1 FK5        -0.0176
     12 C13        21.7070   32.4720   25.8960 C.3       1 FK5         0.0870
     13 C14        20.8790   33.6410   25.2510 C.3       1 FK5         0.1119
     14 C15        21.5660   34.5170   24.1940 C.3       1 FK5         0.0871
     15 C16        22.4060   33.6820   23.2140 C.3       1 FK5        -0.0197
     16 C17        22.9260   34.3970   21.9400 C.3       1 FK5        -0.0328
     17 C18        24.3210   34.9710   22.2430 C.3       1 FK5        -0.0247
     18 C19        25.4080   33.9470   22.0600 C.2       1 FK5        -0.0785
     19 C20        25.8990   33.3360   23.1300 C.2       1 FK5        -0.0807
     20 C21        26.9510   32.2370   23.1200 C.3       1 FK5         0.0542
     21 C22        26.2180   30.9100   23.2540 C.2       1 FK5         0.1218
     22 C23        25.8400   30.2250   21.9470 C.3       1 FK5         0.0505
     23 C24        24.7690   29.1740   22.0980 C.3       1 FK5         0.0779
     24 C25        23.3240   29.8180   22.1860 C.3       1 FK5         0.0236
     25 C26        22.2610   28.6870   22.3830 C.3       1 FK5         0.1176
     26 C27        22.5700   27.8480   23.6200 C.2       1 FK5        -0.0504
     27 C28        22.8810   26.5760   23.4040 C.2       1 FK5        -0.1031
     28 C29        23.3210   25.6110   24.4740 C.3       1 FK5        -0.0326
     29 C30        22.4380   24.3560   24.4770 C.3       1 FK5        -0.0181
     30 C31        22.9750   23.1330   25.2060 C.3       1 FK5         0.0855
     31 C32        24.4100   22.9100   24.7880 C.3       1 FK5         0.0815
     32 C33        25.2350   24.1580   25.0320 C.3       1 FK5        -0.0231
     33 C34        24.7350   25.2290   24.0860 C.3       1 FK5        -0.0445
     34 C35        18.5230   30.8230   27.4590 C.3       1 FK5        -0.0584
     35 C36        21.9960   35.5410   21.5020 C.3       1 FK5        -0.0606
     36 C37        25.8170   33.7330   20.5880 C.3       1 FK5        -0.0391
     37 C38        27.9510   32.4400   24.3030 C.2       1 FK5        -0.0749
     38 C39        29.0060   31.3510   24.5630 C.2       1 FK5        -0.0976
     39 C40        29.7520   30.7690   23.6420 C.3       1 FK5        -0.0477
     40 C41        22.9720   30.6050   20.8880 C.3       1 FK5        -0.0555
     41 C42        22.4990   28.5170   25.0010 C.3       1 FK5        -0.0376
     42 C43        24.0480   32.0940   26.5080 C.3       1 FK5         0.0369
     43 C44        21.6490   36.6540   25.3160 C.3       1 FK5         0.0369
     44 C45        21.1770   21.6790   25.9230 C.3       1 FK5         0.0369
     45 N7         18.4770   30.5550   22.5810 N.am      1 FK5        -0.2402
     46 O1         20.9240   29.2730   22.4600 O.3       1 FK5        -0.2597
     47 O2         20.1220   27.6470   21.0710 O.2       1 FK5        -0.3676
     48 O3         17.4580   29.6280   24.3760 O.2       1 FK5        -0.3605
     49 O4         16.7190   32.6250   24.2810 O.2       1 FK5        -0.2853
     50 O5         19.7730   33.0000   24.6040 O.3       1 FK5        -0.3394
     51 O6         18.3300   33.4250   26.3710 O.3       1 FK5        -0.3640
     52 O7         22.9130   32.9900   26.5240 O.3       1 FK5        -0.3771
     53 O8         22.3750   35.4860   24.8800 O.3       1 FK5        -0.3771
     54 O9         25.9310   30.4410   24.3640 O.2       1 FK5        -0.3872
     55 O10        24.8450   28.2870   20.9730 O.3       1 FK5        -0.3889
     56 O11        22.2310   21.9230   24.9790 O.3       1 FK5        -0.3771
     57 O12        24.8980   21.8360   25.5700 O.3       1 FK5        -0.3892
     58 H1         18.0009   28.5416   22.5453 H         1 FK5         0.0820
     59 H2         16.8572   29.5108   20.6888 H         1 FK5         0.0314
     60 H3         18.1079   28.4160   20.0077 H         1 FK5         0.0314
     61 H4         18.0369   30.5461   18.7705 H         1 FK5         0.0268
     62 H5         19.5996   30.3653   19.6378 H         1 FK5         0.0268
     63 H6         17.1817   31.9506   20.6524 H         1 FK5         0.0285
     64 H7         18.6550   32.6574   19.9065 H         1 FK5         0.0285
     65 H8         18.7955   32.6398   22.4009 H         1 FK5         0.0526
     66 H9         20.0592   31.6080   21.6492 H         1 FK5         0.0526
     67 H10        19.6103   30.4336   25.6593 H         1 FK5         0.0336
     68 H11        21.3033   30.8642   27.2869 H         1 FK5         0.0294
     69 H12        20.5679   32.4404   27.7356 H         1 FK5         0.0294
     70 H13        22.0045   31.7601   25.1120 H         1 FK5         0.0622
     71 H14        20.5260   34.2994   26.0584 H         1 FK5         0.0646
     72 H15        20.7929   35.0448   23.6164 H         1 FK5         0.0622
     73 H16        21.7874   32.8329   22.8879 H         1 FK5         0.0295
     74 H17        23.2818   33.3077   23.7643 H         1 FK5         0.0295
     75 H18        22.9981   33.6647   21.1224 H         1 FK5         0.0321
     76 H19        24.3399   35.3256   23.2841 H         1 FK5         0.0418
     77 H20        24.5118   35.8155   21.5644 H         1 FK5         0.0418
     78 H21        25.5157   33.6483   24.1003 H         1 FK5         0.0280
     79 H22        27.5061   32.2600   22.1706 H         1 FK5         0.0718
     80 H23        26.7398   29.7462   21.5335 H         1 FK5         0.0521
     81 H24        25.4774   30.9913   21.2461 H         1 FK5         0.0521
     82 H25        24.9555   28.6053   23.0209 H         1 FK5         0.0624
     83 H26        23.2918   30.5057   23.0439 H         1 FK5         0.0375
     84 H27        22.2965   28.0241   21.5059 H         1 FK5         0.0802
     85 H28        22.8135   26.2041   22.3827 H         1 FK5         0.0246
     86 H29        23.2965   26.0880   25.4649 H         1 FK5         0.0375
     87 H30        22.2669   24.0686   23.4291 H         1 FK5         0.0308
     88 H31        21.4796   24.6261   24.9444 H         1 FK5         0.0308
     89 H32        22.9466   23.3462   26.2848 H         1 FK5         0.0623
     90 H33        24.4544   22.6490   23.7204 H         1 FK5         0.0619
     91 H34        26.2971   23.9500   24.8354 H         1 FK5         0.0292
     92 H35        25.1131   24.4907   26.0734 H         1 FK5         0.0292
     93 H36        25.3868   26.1126   24.1522 H         1 FK5         0.0283
     94 H37        24.7431   24.8437   23.0558 H         1 FK5         0.0283
     95 H38        17.5604   30.4918   27.0421 H         1 FK5         0.0232
     96 H39        18.3529   31.6549   28.1582 H         1 FK5         0.0232
     97 H40        18.9986   29.9869   27.9926 H         1 FK5         0.0232
     98 H41        20.9962   35.1375   21.2836 H         1 FK5         0.0234
     99 H42        22.4034   36.0196   20.5993 H         1 FK5         0.0234
    100 H43        21.9231   36.2840   22.3098 H         1 FK5         0.0234
    101 H44        26.6118   32.9744   20.5349 H         1 FK5         0.0380
    102 H45        26.1859   34.6805   20.1685 H         1 FK5         0.0380
    103 H46        24.9450   33.3914   20.0111 H         1 FK5         0.0380
    104 H47        27.9024   33.3304   24.9281 H         1 FK5         0.0480
    105 H48        29.1498   31.0330   25.5946 H         1 FK5         0.0461
    106 H49        30.4145   30.0317   24.1189 H         1 FK5         0.0356
    107 H50        30.3589   31.5287   23.1278 H         1 FK5         0.0356
    108 H51        29.1041   30.2616   22.9121 H         1 FK5         0.0356
    109 H52        23.7102   31.4057   20.7332 H         1 FK5         0.0236
    110 H53        21.9688   31.0452   20.9868 H         1 FK5         0.0236
    111 H54        22.9886   29.9197   20.0277 H         1 FK5         0.0236
    112 H55        22.7476   27.7799   25.7787 H         1 FK5         0.0376
    113 H56        21.4821   28.9004   25.1709 H         1 FK5         0.0376
    114 H57        23.2165   29.3497   25.0424 H         1 FK5         0.0376
    115 H58        24.9031   32.5766   27.0039 H         1 FK5         0.0524
    116 H59        24.3136   31.8572   25.4672 H         1 FK5         0.0524
    117 H60        23.7907   31.1667   27.0409 H         1 FK5         0.0524
    118 H61        22.3364   37.3425   25.8293 H         1 FK5         0.0524
    119 H62        20.8489   36.3515   26.0076 H         1 FK5         0.0524
    120 H63        21.2083   37.1586   24.4436 H         1 FK5         0.0524
    121 H64        20.6683   20.7373   25.6693 H         1 FK5         0.0524
    122 H65        20.4540   22.5073   25.8876 H         1 FK5         0.0524
    123 H66        21.6011   21.6054   26.9353 H         1 FK5         0.0524
    124 H67        17.9200   34.1117   25.8584 H         1 FK5         0.2100
    125 H68        24.7074   28.7799   20.1727 H         1 FK5         0.2100
    126 H69        24.8466   22.0668   26.4901 H         1 FK5         0.2099
@<TRIPOS>BOND
     1    2    1 1  
     2    1   46 1  
     3    1   47 2  
     4    3    2 1  
     5    4    3 1  
     6    5    4 1  
     7    6    5 1  
     8   45    6 1  
     9    7    8 1  
    10   45    7 am 
    11    7   48 2  
    12    8    9 1  
    13    8   49 2  
    14    9   10 1  
    15    9   50 1  
    16    9   51 1  
    17   10   11 1  
    18   10   34 1  
    19   11   12 1  
    20   12   13 1  
    21   13   50 1  
    22   13   14 1  
    23   14   15 1  
    24   14   53 1  
    25   15   16 1  
    26   16   17 1  
    27   16   35 1  
    28   17   18 1  
    29   18   19 2  
    30   18   36 1  
    31   19   20 1  
    32   20   21 1  
    33   20   37 1  
    34   21   22 1  
    35   21   54 2  
    36   22   23 1  
    37   23   55 1  
    38   23   24 1  
    39   24   40 1  
    40   24   25 1  
    41   25   26 1  
    42   25   46 1  
    43   26   27 2  
    44   26   41 1  
    45   27   28 1  
    46   28   29 1  
    47   28   33 1  
    48   29   30 1  
    49   30   31 1  
    50   30   56 1  
    51   31   32 1  
    52   31   57 1  
    53   32   33 1  
    54   37   38 2  
    55   38   39 1  
    56   45    2 1  
    57   12   52 1  
    58   56   44 1  
    59   53   43 1  
    60   52   42 1  
    61    2   58 1  
    62    3   59 1  
    63    3   60 1  
    64    4   61 1  
    65    4   62 1  
    66    5   63 1  
    67    5   64 1  
    68    6   65 1  
    69    6   66 1  
    70   10   67 1  
    71   11   68 1  
    72   11   69 1  
    73   12   70 1  
    74   13   71 1  
    75   14   72 1  
    76   15   73 1  
    77   15   74 1  
    78   16   75 1  
    79   17   76 1  
    80   17   77 1  
    81   19   78 1  
    82   20   79 1  
    83   22   80 1  
    84   22   81 1  
    85   23   82 1  
    86   24   83 1  
    87   25   84 1  
    88   27   85 1  
    89   28   86 1  
    90   29   87 1  
    91   29   88 1  
    92   30   89 1  
    93   31   90 1  
    94   32   91 1  
    95   32   92 1  
    96   33   93 1  
    97   33   94 1  
    98   34   95 1  
    99   34   96 1  
   100   34   97 1  
   101   35   98 1  
   102   35   99 1  
   103   35  100 1  
   104   36  101 1  
   105   36  102 1  
   106   36  103 1  
   107   37  104 1  
   108   38  105 1  
   109   39  106 1  
   110   39  107 1  
   111   39  108 1  
   112   40  109 1  
   113   40  110 1  
   114   40  111 1  
   115   41  112 1  
   116   41  113 1  
   117   41  114 1  
   118   42  115 1  
   119   42  116 1  
   120   42  117 1  
   121   43  118 1  
   122   43  119 1  
   123   43  120 1  
   124   44  121 1  
   125   44  122 1  
   126   44  123 1  
   127   51  124 1  
   128   55  125 1  
   129   57  126 1  
@<TRIPOS>SUBSTRUCTURE
     1 FK5         1

