### 
### Created by X-TOOL on Mon Sep 10 21:12:45 2018
### 

@<TRIPOS>MOLECULE
1fkg_ligand
   68    70     1     0     0
SMALL
GAST_HUCK


@<TRIPOS>ATOM
      1 C1        -24.9690   27.3480    4.2710 C.2       1 SB3         0.2622
      2 O1        -25.6770   28.3360    4.7790 O.3       1 SB3        -0.2584
      3 O2        -23.8060   27.4770    3.9930 O.2       1 SB3        -0.3676
      4 C2        -25.7480   26.0540    3.9610 C.3       1 SB3         0.1459
      5 C3        -25.3870   25.4230    2.6200 C.3       1 SB3        -0.0106
      6 C4        -25.7890   26.2160    1.3830 C.3       1 SB3        -0.0469
      7 C5        -27.2970   26.3700    1.3880 C.3       1 SB3        -0.0320
      8 C6        -27.6570   26.9830    2.7430 C.3       1 SB3         0.0376
      9 N7        -27.2020   26.1280    3.8840 N.am      1 SB3        -0.2403
     10 C8        -27.9480   25.8960    4.9870 C.2       1 SB3         0.2727
     11 O3        -27.3890   25.4260    5.9800 O.2       1 SB3        -0.3607
     12 C9        -29.4780   26.0970    5.0560 C.2       1 SB3         0.2392
     13 O4        -30.2030   25.2860    4.4680 O.2       1 SB3        -0.2906
     14 C10       -30.1130   27.1930    5.9250 C.3       1 SB3         0.0430
     15 C11       -29.6180   28.5640    5.5010 C.3       1 SB3        -0.0453
     16 C12       -30.1120   29.0070    4.1070 C.3       1 SB3        -0.0659
     17 C13       -29.7510   27.0540    7.4480 C.3       1 SB3        -0.0545
     18 C14       -31.6540   27.2080    5.8160 C.3       1 SB3        -0.0545
     19 C15       -25.1340   29.6560    4.9600 C.3       1 SB3         0.1233
     20 C16       -24.5940   29.7240    6.3920 C.3       1 SB3        -0.0023
     21 C17       -23.7130   30.9140    6.7670 C.3       1 SB3        -0.0147
     22 C18       -22.5240   30.5570    7.6390 C.ar      1 SB3        -0.0428
     23 C19       -22.6260   30.6130    8.9560 C.ar      1 SB3        -0.0603
     24 C20       -21.7020   30.0690    9.7210 C.ar      1 SB3        -0.0686
     25 C21       -20.6520   29.4650    9.1790 C.ar      1 SB3        -0.0687
     26 C22       -20.5310   29.4190    7.8660 C.ar      1 SB3        -0.0686
     27 C23       -21.4660   29.9720    7.1020 C.ar      1 SB3        -0.0603
     28 C24       -26.2810   30.6540    4.6780 C.ar      1 SB3        -0.0097
     29 C25       -26.4530   31.0880    3.4270 C.ar      1 SB3        -0.0575
     30 C26       -27.3790   31.9840    3.1360 C.ar      1 SB3        -0.0685
     31 C27       -28.1560   32.4590    4.0980 C.ar      1 SB3        -0.0687
     32 C28       -28.0050   32.0380    5.3480 C.ar      1 SB3        -0.0685
     33 C29       -27.0750   31.1380    5.6430 C.ar      1 SB3        -0.0575
     34 H1        -25.4876   25.3502    4.7652 H         1 SB3         0.0820
     35 H2        -25.8797   24.4410    2.5658 H         1 SB3         0.0314
     36 H3        -24.2957   25.2877    2.5938 H         1 SB3         0.0314
     37 H4        -25.4727   25.6783    0.4770 H         1 SB3         0.0268
     38 H5        -25.3135   27.2076    1.4057 H         1 SB3         0.0268
     39 H6        -27.7812   25.3891    1.2721 H         1 SB3         0.0285
     40 H7        -27.6155   27.0349    0.5716 H         1 SB3         0.0285
     41 H8        -28.7492   27.1004    2.8008 H         1 SB3         0.0526
     42 H9        -27.1773   27.9695    2.8252 H         1 SB3         0.0526
     43 H10       -28.5182   28.5460    5.4885 H         1 SB3         0.0252
     44 H11       -29.9643   29.3007    6.2408 H         1 SB3         0.0252
     45 H12       -29.7112   30.0050    3.8761 H         1 SB3         0.0228
     46 H13       -31.2114   29.0432    4.1020 H         1 SB3         0.0228
     47 H14       -29.7653   28.2885    3.3497 H         1 SB3         0.0228
     48 H15       -30.0868   26.0735    7.8167 H         1 SB3         0.0219
     49 H16       -30.2511   27.8509    8.0180 H         1 SB3         0.0219
     50 H17       -28.6618   27.1402    7.5754 H         1 SB3         0.0219
     51 H18       -32.0523   26.2276    6.1162 H         1 SB3         0.0219
     52 H19       -31.9461   27.4198    4.7769 H         1 SB3         0.0219
     53 H20       -32.0608   27.9872    6.4774 H         1 SB3         0.0219
     54 H21       -24.3114   29.8383    4.2528 H         1 SB3         0.0816
     55 H22       -24.0032   28.8121    6.5631 H         1 SB3         0.0338
     56 H23       -25.4608   29.7318    7.0691 H         1 SB3         0.0338
     57 H24       -24.3318   31.6440    7.3094 H         1 SB3         0.0428
     58 H25       -23.3361   31.3700    5.8397 H         1 SB3         0.0428
     59 H26       -23.4760   31.1101    9.4094 H         1 SB3         0.0557
     60 H27       -21.7998   30.1149   10.7996 H         1 SB3         0.0599
     61 H28       -19.8976   29.0117    9.8118 H         1 SB3         0.0559
     62 H29       -19.6740   28.9330    7.4138 H         1 SB3         0.0599
     63 H30       -21.3608   29.9436    6.0235 H         1 SB3         0.0557
     64 H31       -25.8218   30.6983    2.6365 H         1 SB3         0.0558
     65 H32       -27.5024   32.3286    2.1157 H         1 SB3         0.0599
     66 H33       -28.9177   33.1939    3.8638 H         1 SB3         0.0559
     67 H34       -28.6437   32.4308    6.1308 H         1 SB3         0.0599
     68 H35       -26.9578   30.7945    6.6644 H         1 SB3         0.0558
@<TRIPOS>BOND
     1    1    4 1  
     2    1    3 2  
     3    1    2 1  
     4    2   19 1  
     5   19   28 1  
     6   19   20 1  
     7   20   21 1  
     8   21   22 1  
     9   22   27 ar 
    10   22   23 ar 
    11   23   24 ar 
    12   24   25 ar 
    13   25   26 ar 
    14   26   27 ar 
    15   28   33 ar 
    16   28   29 ar 
    17   29   30 ar 
    18   30   31 ar 
    19   31   32 ar 
    20   32   33 ar 
    21    4    9 1  
    22    4    5 1  
    23    5    6 1  
    24    6    7 1  
    25    7    8 1  
    26    8    9 1  
    27    9   10 am 
    28   10   12 1  
    29   10   11 2  
    30   12   14 1  
    31   12   13 2  
    32   14   18 1  
    33   14   17 1  
    34   14   15 1  
    35   15   16 1  
    36    4   34 1  
    37    5   35 1  
    38    5   36 1  
    39    6   37 1  
    40    6   38 1  
    41    7   39 1  
    42    7   40 1  
    43    8   41 1  
    44    8   42 1  
    45   15   43 1  
    46   15   44 1  
    47   16   45 1  
    48   16   46 1  
    49   16   47 1  
    50   17   48 1  
    51   17   49 1  
    52   17   50 1  
    53   18   51 1  
    54   18   52 1  
    55   18   53 1  
    56   19   54 1  
    57   20   55 1  
    58   20   56 1  
    59   21   57 1  
    60   21   58 1  
    61   23   59 1  
    62   24   60 1  
    63   25   61 1  
    64   26   62 1  
    65   27   63 1  
    66   29   64 1  
    67   30   65 1  
    68   31   66 1  
    69   32   67 1  
    70   33   68 1  
@<TRIPOS>SUBSTRUCTURE
     1 SB3         1

