### 
### Created by X-TOOL on Mon Sep 10 21:12:45 2018
### 

@<TRIPOS>MOLECULE
1fkh_ligand
   74    76     1     0     0
SMALL
GAST_HUCK


@<TRIPOS>ATOM
      1 C1        -24.9340   27.2020   42.8060 C.2       1 SBX         0.2602
      2 O1        -25.5560   28.2700   43.2910 O.3       1 SBX        -0.2713
      3 O2        -23.7450   27.1250   42.5220 O.2       1 SBX        -0.3678
      4 C2        -25.8490   25.9980   42.6170 C.3       1 SBX         0.1457
      5 C3        -25.4910   25.2720   41.3250 C.3       1 SBX        -0.0106
      6 C4        -25.9240   26.0310   40.0820 C.3       1 SBX        -0.0469
      7 C5        -27.4350   26.1960   40.2140 C.3       1 SBX        -0.0320
      8 C6        -27.7860   26.9930   41.4600 C.3       1 SBX         0.0376
      9 N7        -27.3020   26.1860   42.5850 N.am      1 SBX        -0.2403
     10 C8        -28.0550   25.7940   43.6310 C.2       1 SBX         0.2727
     11 O3        -27.4850   25.3040   44.6070 O.2       1 SBX        -0.3607
     12 C9        -29.5750   25.8160   43.6950 C.2       1 SBX         0.2392
     13 O4        -30.1390   24.8210   43.2360 O.2       1 SBX        -0.2906
     14 C10       -30.3880   26.9080   44.3810 C.3       1 SBX         0.0430
     15 C11       -29.5400   27.9890   45.0370 C.3       1 SBX        -0.0453
     16 C12       -28.8970   27.5870   46.3970 C.3       1 SBX        -0.0659
     17 C13       -31.2800   26.2970   45.4140 C.3       1 SBX        -0.0545
     18 C14       -31.3790   27.5520   43.4570 C.3       1 SBX        -0.0545
     19 C15       -24.9120   29.5760   43.3480 C.3       1 SBX         0.0922
     20 C16       -24.3810   29.8820   44.7400 C.3       1 SBX        -0.0121
     21 C17       -23.0100   30.5460   44.7480 C.3       1 SBX        -0.0165
     22 C18       -22.0150   30.2050   45.8310 C.ar      1 SBX        -0.0429
     23 C19       -22.3100   30.4470   47.1010 C.ar      1 SBX        -0.0603
     24 C20       -21.5290   30.0090   48.0710 C.ar      1 SBX        -0.0686
     25 C21       -20.4390   29.3310   47.7650 C.ar      1 SBX        -0.0687
     26 C22       -20.1320   29.1030   46.5020 C.ar      1 SBX        -0.0686
     27 C23       -20.9170   29.5410   45.5370 C.ar      1 SBX        -0.0603
     28 C24       -25.9190   30.6340   42.9670 C.3       1 SBX        -0.0101
     29 C25       -26.1710   30.8150   41.4870 C.3       1 SBX        -0.0475
     30 C26       -26.9240   32.1030   41.3520 C.3       1 SBX        -0.0527
     31 C27       -28.2300   32.0540   42.1330 C.3       1 SBX        -0.0530
     32 C28       -28.0190   31.8070   43.6120 C.3       1 SBX        -0.0527
     33 C29       -27.2150   30.5180   43.7580 C.3       1 SBX        -0.0475
     34 H1        -25.6395   25.3277   43.4637 H         1 SBX         0.0820
     35 H2        -25.9848   24.2891   41.3260 H         1 SBX         0.0314
     36 H3        -24.4002   25.1343   41.2902 H         1 SBX         0.0314
     37 H4        -25.6771   25.4584   39.1758 H         1 SBX         0.0268
     38 H5        -25.4318   27.0138   40.0402 H         1 SBX         0.0268
     39 H6        -27.9017   25.2020   40.2788 H         1 SBX         0.0285
     40 H7        -27.8185   26.7242   39.3286 H         1 SBX         0.0285
     41 H8        -28.8740   27.1387   41.5304 H         1 SBX         0.0526
     42 H9        -27.2852   27.9722   41.4448 H         1 SBX         0.0526
     43 H10       -30.1798   28.8672   45.2086 H         1 SBX         0.0252
     44 H11       -28.7299   28.2556   44.3423 H         1 SBX         0.0252
     45 H12       -28.3080   28.4300   46.7875 H         1 SBX         0.0228
     46 H13       -28.2394   26.7177   46.2490 H         1 SBX         0.0228
     47 H14       -29.6893   27.3294   47.1153 H         1 SBX         0.0228
     48 H15       -31.8971   25.5141   44.9489 H         1 SBX         0.0219
     49 H16       -31.9325   27.0731   45.8404 H         1 SBX         0.0219
     50 H17       -30.6666   25.8542   46.2126 H         1 SBX         0.0219
     51 H18       -31.9945   26.7749   42.9802 H         1 SBX         0.0219
     52 H19       -30.8429   28.1210   42.6832 H         1 SBX         0.0219
     53 H20       -32.0263   28.2322   44.0300 H         1 SBX         0.0219
     54 H21       -24.0745   29.5923   42.6351 H         1 SBX         0.0654
     55 H22       -24.3110   28.9372   45.2989 H         1 SBX         0.0316
     56 H23       -25.0933   30.5532   45.2421 H         1 SBX         0.0316
     57 H24       -23.1824   31.6309   44.8047 H         1 SBX         0.0427
     58 H25       -22.5320   30.3003   43.7882 H         1 SBX         0.0427
     59 H26       -23.2028   31.0110   47.3455 H         1 SBX         0.0557
     60 H27       -21.7803   30.2041   49.1073 H         1 SBX         0.0599
     61 H28       -19.7940   28.9603   48.5534 H         1 SBX         0.0559
     62 H29       -19.2306   28.5532   46.2566 H         1 SBX         0.0599
     63 H30       -20.6579   29.3541   44.5011 H         1 SBX         0.0557
     64 H31       -25.4624   31.5811   43.2904 H         1 SBX         0.0329
     65 H32       -26.7698   29.9792   41.0960 H         1 SBX         0.0269
     66 H33       -25.2178   30.8703   40.9407 H         1 SBX         0.0269
     67 H34       -27.1464   32.2804   40.2894 H         1 SBX         0.0265
     68 H35       -26.3038   32.9249   41.7390 H         1 SBX         0.0265
     69 H36       -28.8527   31.2435   41.7265 H         1 SBX         0.0265
     70 H37       -28.7509   33.0147   42.0078 H         1 SBX         0.0265
     71 H38       -28.9908   31.7013   44.1164 H         1 SBX         0.0265
     72 H39       -27.4645   32.6466   44.0565 H         1 SBX         0.0265
     73 H40       -26.9824   30.3496   44.8198 H         1 SBX         0.0269
     74 H41       -27.8047   29.6729   43.3733 H         1 SBX         0.0269
@<TRIPOS>BOND
     1    1    4 1  
     2    1    3 2  
     3    1    2 1  
     4    2   19 1  
     5   19   28 1  
     6   19   20 1  
     7   20   21 1  
     8   21   22 1  
     9   22   27 ar 
    10   22   23 ar 
    11   23   24 ar 
    12   24   25 ar 
    13   25   26 ar 
    14   26   27 ar 
    15   28   33 1  
    16   28   29 1  
    17   29   30 1  
    18   30   31 1  
    19   31   32 1  
    20   32   33 1  
    21    4    9 1  
    22    4    5 1  
    23    5    6 1  
    24    6    7 1  
    25    7    8 1  
    26    8    9 1  
    27    9   10 am 
    28   10   12 1  
    29   10   11 2  
    30   12   14 1  
    31   12   13 2  
    32   14   18 1  
    33   14   17 1  
    34   14   15 1  
    35   15   16 1  
    36    4   34 1  
    37    5   35 1  
    38    5   36 1  
    39    6   37 1  
    40    6   38 1  
    41    7   39 1  
    42    7   40 1  
    43    8   41 1  
    44    8   42 1  
    45   15   43 1  
    46   15   44 1  
    47   16   45 1  
    48   16   46 1  
    49   16   47 1  
    50   17   48 1  
    51   17   49 1  
    52   17   50 1  
    53   18   51 1  
    54   18   52 1  
    55   18   53 1  
    56   19   54 1  
    57   20   55 1  
    58   20   56 1  
    59   21   57 1  
    60   21   58 1  
    61   23   59 1  
    62   24   60 1  
    63   25   61 1  
    64   26   62 1  
    65   27   63 1  
    66   28   64 1  
    67   29   65 1  
    68   29   66 1  
    69   30   67 1  
    70   30   68 1  
    71   31   69 1  
    72   31   70 1  
    73   32   71 1  
    74   32   72 1  
    75   33   73 1  
    76   33   74 1  
@<TRIPOS>SUBSTRUCTURE
     1 SBX         1

