### 
### Created by X-TOOL on Mon Sep 10 21:12:45 2018
### 

@<TRIPOS>MOLECULE
1fki_ligand
   70    71     1     0     0
SMALL
GAST_HUCK


@<TRIPOS>ATOM
      1 N1          8.2000  -38.3720    0.8770 N.am      1 SB1        -0.2403
      2 C2          8.7830  -39.3840    1.5490 C.2       1 SB1         0.2728
      3 O2          9.4950  -39.1460    2.5420 O.2       1 SB1        -0.3607
      4 C3          8.5570  -40.8410    1.1260 C.2       1 SB1         0.2418
      5 O3          9.0030  -41.2190    0.0390 O.2       1 SB1        -0.2906
      6 C4          7.7510  -41.8170    2.0150 C.3       1 SB1         0.0707
      7 C5          7.0980  -42.9360    1.2220 C.3       1 SB1         0.0875
      8 O6          6.3130  -42.2040    0.2750 O.3       1 SB1        -0.2777
      9 C7          5.4490  -42.8090   -0.5010 C.2       1 SB1         0.2336
     10 O7          5.3030  -44.0240   -0.4610 O.2       1 SB1        -0.3704
     11 C8          4.7200  -41.9230   -1.4770 C.3       1 SB1         0.0487
     12 C9          3.4010  -42.4600   -1.9570 C.3       1 SB1        -0.0348
     13 C10         2.8310  -41.5560   -3.0580 C.3       1 SB1        -0.0509
     14 C11         2.1900  -40.2620   -2.5340 C.3       1 SB1        -0.0529
     15 C12         1.3740  -40.4380   -1.2610 C.3       1 SB1        -0.0531
     16 C13         1.1280  -39.0910   -0.6270 C.3       1 SB1        -0.0531
     17 C14         2.3130  -38.6720    0.2170 C.3       1 SB1        -0.0531
     18 C15         2.0550  -37.2730    0.7520 C.3       1 SB1        -0.0530
     19 C16         3.2960  -36.7250    1.4300 C.3       1 SB1        -0.0507
     20 C17         3.6950  -37.5120    2.6810 C.3       1 SB1        -0.0250
     21 C18         4.9390  -36.9370    3.3450 C.3       1 SB1         0.0769
     22 O19         6.0730  -37.3520    2.5180 O.3       1 SB1        -0.2751
     23 C20         7.0910  -36.5260    2.2580 C.2       1 SB1         0.2599
     24 O20         7.1310  -35.3720    2.6740 O.2       1 SB1        -0.3678
     25 C21         8.2580  -37.0160    1.4190 C.3       1 SB1         0.1457
     26 C22         8.4830  -36.0780    0.2490 C.3       1 SB1        -0.0106
     27 C23         7.4650  -36.2330   -0.8490 C.3       1 SB1        -0.0469
     28 C24         7.3910  -37.6910   -1.2560 C.3       1 SB1        -0.0320
     29 C25         7.0810  -38.5700   -0.0560 C.3       1 SB1         0.0376
     30 C26         6.5810  -41.1270    2.7740 C.3       1 SB1        -0.0520
     31 C27         8.6630  -42.4620    3.0960 C.3       1 SB1        -0.0520
     32 H1          6.4655  -43.5661    1.8646 H         1 SB1         0.0602
     33 H2          7.8498  -43.5626    0.7198 H         1 SB1         0.0602
     34 H3          5.3678  -41.7749   -2.3536 H         1 SB1         0.0518
     35 H4          4.5370  -40.9546   -0.9884 H         1 SB1         0.0518
     36 H5          2.6948  -42.4960   -1.1144 H         1 SB1         0.0291
     37 H6          3.5455  -43.4741   -2.3579 H         1 SB1         0.0291
     38 H7          2.0659  -42.1224   -3.6092 H         1 SB1         0.0267
     39 H8          3.6494  -41.2846   -3.7411 H         1 SB1         0.0267
     40 H9          1.5265  -39.8649   -3.3163 H         1 SB1         0.0265
     41 H10         2.9925  -39.5375   -2.3313 H         1 SB1         0.0265
     42 H11         1.9265  -41.0782   -0.5576 H         1 SB1         0.0265
     43 H12         0.4105  -40.9087   -1.5059 H         1 SB1         0.0265
     44 H13         0.2336  -39.1500    0.0106 H         1 SB1         0.0265
     45 H14         0.9659  -38.3439   -1.4179 H         1 SB1         0.0265
     46 H15         3.2248  -38.6714   -0.3983 H         1 SB1         0.0265
     47 H16         2.4371  -39.3727    1.0558 H         1 SB1         0.0265
     48 H17         1.2315  -37.3104    1.4803 H         1 SB1         0.0265
     49 H18         1.7770  -36.6122   -0.0823 H         1 SB1         0.0265
     50 H19         3.1046  -35.6812    1.7196 H         1 SB1         0.0266
     51 H20         4.1302  -36.7598    0.7139 H         1 SB1         0.0266
     52 H21         3.8952  -38.5552    2.3953 H         1 SB1         0.0291
     53 H22         2.8629  -37.4819    3.3998 H         1 SB1         0.0291
     54 H23         5.0452  -37.3350    4.3649 H         1 SB1         0.0613
     55 H24         4.8774  -35.8394    3.3843 H         1 SB1         0.0613
     56 H25         9.1425  -36.9745    2.0716 H         1 SB1         0.0820
     57 H26         9.4803  -36.2772   -0.1702 H         1 SB1         0.0314
     58 H27         8.4409  -35.0431    0.6193 H         1 SB1         0.0314
     59 H28         7.7621  -35.6237   -1.7152 H         1 SB1         0.0268
     60 H29         6.4804  -35.9013   -0.4877 H         1 SB1         0.0268
     61 H30         8.3567  -37.9951   -1.6861 H         1 SB1         0.0285
     62 H31         6.5988  -37.8157   -2.0088 H         1 SB1         0.0285
     63 H32         6.1331  -38.2633    0.4102 H         1 SB1         0.0526
     64 H33         7.0158  -39.6253   -0.3594 H         1 SB1         0.0526
     65 H34         6.9751  -40.2965    3.3781 H         1 SB1         0.0220
     66 H35         6.0893  -41.8582    3.4324 H         1 SB1         0.0220
     67 H36         5.8516  -40.7384    2.0481 H         1 SB1         0.0220
     68 H37         9.1489  -41.6706    3.6855 H         1 SB1         0.0220
     69 H38         9.4313  -43.0790    2.6070 H         1 SB1         0.0220
     70 H39         8.0543  -43.0928    3.7605 H         1 SB1         0.0220
@<TRIPOS>BOND
     1    1   29 1  
     2    1   25 1  
     3    1    2 am 
     4    2    4 1  
     5    2    3 2  
     6    4    6 1  
     7    4    5 2  
     8    6   31 1  
     9    6   30 1  
    10    6    7 1  
    11    7    8 1  
    12    8    9 1  
    13    9   11 1  
    14    9   10 2  
    15   11   12 1  
    16   12   13 1  
    17   13   14 1  
    18   14   15 1  
    19   15   16 1  
    20   16   17 1  
    21   17   18 1  
    22   18   19 1  
    23   19   20 1  
    24   20   21 1  
    25   21   22 1  
    26   22   23 1  
    27   25   23 1  
    28   23   24 2  
    29   25   26 1  
    30   26   27 1  
    31   27   28 1  
    32   28   29 1  
    33    7   32 1  
    34    7   33 1  
    35   11   34 1  
    36   11   35 1  
    37   12   36 1  
    38   12   37 1  
    39   13   38 1  
    40   13   39 1  
    41   14   40 1  
    42   14   41 1  
    43   15   42 1  
    44   15   43 1  
    45   16   44 1  
    46   16   45 1  
    47   17   46 1  
    48   17   47 1  
    49   18   48 1  
    50   18   49 1  
    51   19   50 1  
    52   19   51 1  
    53   20   52 1  
    54   20   53 1  
    55   21   54 1  
    56   21   55 1  
    57   25   56 1  
    58   26   57 1  
    59   26   58 1  
    60   27   59 1  
    61   27   60 1  
    62   28   61 1  
    63   28   62 1  
    64   29   63 1  
    65   29   64 1  
    66   30   65 1  
    67   30   66 1  
    68   30   67 1  
    69   31   68 1  
    70   31   69 1  
    71   31   70 1  
@<TRIPOS>SUBSTRUCTURE
     1 SB1         1

