### 
### Created by X-TOOL on Mon Sep 10 21:12:47 2018
### 

@<TRIPOS>MOLECULE
1fkn_ligand
  125   125     1     0     0
SMALL
GAST_HUCK


@<TRIPOS>ATOM
      1 N          11.1570    7.4330   -4.3140 N.4       1 GLU         0.2380
      2 CA         10.7410    6.5750   -3.1590 C.3       1 GLU         0.0665
      3 C          11.4590    5.2160   -3.2060 C.2       1 GLU         0.2268
      4 O          11.6850    4.6680   -4.2780 O.2       1 GLU        -0.3907
      5 CB          9.2290    6.3220   -3.1940 C.3       1 GLU         0.0194
      6 CG          8.6830    5.6920   -1.9020 C.3       1 GLU         0.0075
      7 CD          7.1950    5.3920   -1.9550 C.2       1 GLU         0.0351
      8 OE1         6.5040    5.9780   -2.8260 O.co2     1 GLU        -0.5690
      9 OE2         6.7060    4.5890   -1.1280 O.co2     1 GLU        -0.5690
     10 N          11.8460    4.6910   -2.0540 N.am      1 VAL        -0.2608
     11 CA         12.4590    3.3760   -2.0100 C.3       1 VAL         0.1334
     12 C          11.6340    2.5320   -1.0730 C.2       1 VAL         0.2043
     13 O          11.0230    3.0340   -0.1150 O.2       1 VAL        -0.3944
     14 CB         13.9430    3.3790   -1.5210 C.3       1 VAL        -0.0063
     15 CG1        14.8850    3.6840   -2.7130 C.3       1 VAL        -0.0584
     16 CG2        14.1430    4.3840   -0.3700 C.3       1 VAL        -0.0584
     17 N          11.5580    1.2470   -1.3920 N.am      1 ASN        -0.2616
     18 CA         10.8480    0.2830   -0.5770 C.3       1 ASN         0.1474
     19 C          11.6510   -1.0010   -0.6620 C.2       1 ASN         0.2043
     20 O          11.2160   -1.9930   -1.2620 O.2       1 ASN        -0.3944
     21 CB          9.4320    0.0740   -1.1140 C.3       1 ASN         0.0773
     22 CG          8.4930    1.1810   -0.6860 C.2       1 ASN         0.1780
     23 OD1         8.0660    1.2140    0.4620 O.2       1 ASN        -0.3970
     24 ND2         8.1800    2.1050   -1.6120 N.am      1 ASN        -0.3007
     25 CD1        16.3510    0.0240   -2.0040 C.3       1 1OL        -0.0626
     26 CD2        15.0550   -1.9690   -2.8990 C.3       1 1OL        -0.0626
     27 CG         15.1090   -0.8940   -1.8110 C.3       1 1OL        -0.0446
     28 CB         15.1310   -1.5880   -0.4350 C.3       1 1OL        -0.0251
     29 N          12.8180   -0.9830   -0.0330 N.am      1 1OL        -0.2794
     30 CA         13.7330   -2.1130   -0.0570 C.3       1 1OL         0.0683
     31 C          13.7650   -2.8810    1.2800 C.3       1 1OL         0.0804
     32 O          14.3540   -2.0710    2.3130 O.3       1 1OL        -0.3894
     33 CM         12.3550   -3.3280    1.7080 C.3       1 1OL        -0.0052
     34 CA         12.3030   -4.5700    2.6030 C.3       1 1OL         0.0483
     35 CB         11.0280   -4.5690    3.4480 C.3       1 1OL        -0.0452
     36 C          12.3390   -5.8260    1.7210 C.2       1 1OL         0.1811
     37 O          11.6030   -5.8910    0.7200 O.2       1 1OL        -0.3966
     38 N          13.2170   -6.7780    2.0740 N.am      1 ALA        -0.2657
     39 CA         13.3150   -8.0710    1.3920 C.3       1 ALA         0.1281
     40 C          11.9290   -8.6670    1.5770 C.2       1 ALA         0.2036
     41 O          11.3660   -8.7050    2.7100 O.2       1 ALA        -0.3944
     42 CB         14.3890   -8.9320    2.0120 C.3       1 ALA        -0.0244
     43 N          11.4140   -9.2850    0.4380 N.am      1 GLU        -0.2636
     44 CA          9.9880   -9.6860    0.1960 C.3       1 GLU         0.1324
     45 C           9.2010  -10.6950    0.9980 C.2       1 GLU         0.2036
     46 O           9.3360  -11.9070    1.0870 O.2       1 GLU        -0.3944
     47 CB          9.7260   -9.7960   -1.3120 C.3       1 GLU        -0.0008
     48 CG          8.7370   -8.7100   -1.7560 C.3       1 GLU         0.0044
     49 CD          7.5260   -9.2310   -2.5400 C.2       1 GLU         0.0350
     50 OE1         7.6950  -10.1910   -3.3200 O.co2     1 GLU        -0.5690
     51 OE2         6.4110   -8.6810   -2.3570 O.co2     1 GLU        -0.5690
     52 N           8.3300   -9.7800    1.5830 N.am      1 PHE        -0.2677
     53 CA          7.1910   -9.5180    2.5020 C.3       1 PHE         0.1039
     54 C           7.1510  -10.4350    3.7380 C.2       1 PHE         0.0621
     55 O           8.1320  -11.1030    4.1670 O.co2     1 PHE        -0.5664
     56 CB          5.8970   -9.4910    1.7430 C.3       1 PHE         0.0159
     57 CG          5.4730  -10.8800    1.5960 C.ar      1 PHE        -0.0392
     58 CD1         6.4300  -11.8280    1.2760 C.ar      1 PHE        -0.0602
     59 CD2         4.1530  -11.2590    1.7680 C.ar      1 PHE        -0.0602
     60 CE1         6.0760  -13.1640    1.1220 C.ar      1 PHE        -0.0686
     61 CE2         3.7870  -12.5860    1.6470 C.ar      1 PHE        -0.0686
     62 CZ          4.7520  -13.5300    1.3220 C.ar      1 PHE        -0.0687
     63 OXT         6.1230  -10.4800    4.4740 O.co2     1 PHE        -0.5664
     64 H1         10.6764    8.3177   -4.2655 H         1 GLU         0.2015
     65 H2         10.9223    6.9701   -5.1781 H         1 GLU         0.2015
     66 H3         12.1522    7.5887   -4.2757 H         1 GLU         0.2015
     67 H4         11.0013    7.0904   -2.2228 H         1 GLU         0.1099
     68 H5          9.0086    5.6444   -4.0320 H         1 GLU         0.0363
     69 H6          8.7187    7.2830   -3.3555 H         1 GLU         0.0363
     70 H7          8.8683    6.3876   -1.0703 H         1 GLU         0.0434
     71 H8          9.2215    4.7504   -1.7194 H         1 GLU         0.0434
     72 H9         11.7148    5.2051   -1.2063 H         1 VAL         0.1885
     73 H10        12.4305    2.9419   -3.0203 H         1 VAL         0.0802
     74 H11        14.1838    2.3754   -1.1405 H         1 VAL         0.0343
     75 H12        15.9284    3.6852   -2.3647 H         1 VAL         0.0234
     76 H13        14.6375    4.6701   -3.1330 H         1 VAL         0.0234
     77 H14        14.7579    2.9132   -3.4874 H         1 VAL         0.0234
     78 H15        13.4596    4.1366    0.4557 H         1 VAL         0.0234
     79 H16        13.9297    5.4012   -0.7302 H         1 VAL         0.0234
     80 H17        15.1824    4.3315   -0.0139 H         1 VAL         0.0234
     81 H18        12.0082    0.9315   -2.2273 H         1 ASN         0.1885
     82 H19        10.7946    0.6299    0.4655 H         1 ASN         0.0826
     83 H20         9.0467   -0.8843   -0.7356 H         1 ASN         0.0551
     84 H21         9.4697    0.0458   -2.2130 H         1 ASN         0.0551
     85 H22         7.5634    2.8571   -1.3794 H         1 ASN         0.1814
     86 H23         8.5639    2.0398   -2.5331 H         1 ASN         0.1814
     87 H24        16.3033    0.5021   -2.9935 H         1 1OL         0.0232
     88 H25        17.2678   -0.5796   -1.9322 H         1 1OL         0.0232
     89 H26        16.3596    0.7983   -1.2228 H         1 1OL         0.0232
     90 H27        14.1709   -2.6047   -2.7428 H         1 1OL         0.0232
     91 H28        15.9639   -2.5866   -2.8497 H         1 1OL         0.0232
     92 H29        14.9912   -1.4885   -3.8864 H         1 1OL         0.0232
     93 H30        14.2044   -0.2719   -1.8793 H         1 1OL         0.0296
     94 H31        15.4617   -0.8662    0.3263 H         1 1OL         0.0291
     95 H32        15.8348   -2.4327   -0.4697 H         1 1OL         0.0291
     96 H33        13.0784   -0.1627    0.4763 H         1 1OL         0.1856
     97 H34        13.3982   -2.8129   -0.8367 H         1 1OL         0.0582
     98 H35        14.3856   -3.7791    1.1445 H         1 1OL         0.0618
     99 H36        15.2425   -1.8424    2.0666 H         1 1OL         0.2099
    100 H37        11.8865   -2.4961    2.2543 H         1 1OL         0.0318
    101 H38        11.7757   -3.5412    0.7976 H         1 1OL         0.0318
    102 H39        13.1764   -4.5698    3.2717 H         1 1OL         0.0536
    103 H40        11.0084   -5.4669    4.0831 H         1 1OL         0.0257
    104 H41        10.1494   -4.5688    2.7861 H         1 1OL         0.0257
    105 H42        11.0093   -3.6706    4.0825 H         1 1OL         0.0257
    106 H43        13.8341   -6.5959    2.8395 H         1 ALA         0.1883
    107 H44        13.5375   -7.9331    0.3236 H         1 ALA         0.0797
    108 H45        14.4397   -9.8940    1.4810 H         1 ALA         0.0277
    109 H46        14.1505   -9.1099    3.0710 H         1 ALA         0.0277
    110 H47        15.3593   -8.4195    1.9357 H         1 ALA         0.0277
    111 H48        12.0641   -9.4820   -0.2959 H         1 GLU         0.1883
    112 H49         9.4645   -8.7608    0.4787 H         1 GLU         0.0801
    113 H50         9.3036  -10.7865   -1.5366 H         1 GLU         0.0330
    114 H51        10.6736   -9.6695   -1.8561 H         1 GLU         0.0330
    115 H52         9.2766   -7.9946   -2.3939 H         1 GLU         0.0433
    116 H53         8.3678   -8.1941   -0.8574 H         1 GLU         0.0433
    117 H54         8.5907   -8.8872    1.2157 H         1 PHE         0.1877
    118 H55         7.3416   -8.5009    2.8928 H         1 PHE         0.0749
    119 H56         6.0460   -9.0327    0.7542 H         1 PHE         0.0467
    120 H57         5.1407   -8.9201    2.3016 H         1 PHE         0.0467
    121 H58         7.4629  -11.5266    1.1445 H         1 PHE         0.0557
    122 H59         3.4028  -10.5114    1.9987 H         1 PHE         0.0557
    123 H60         6.8194  -13.9050    0.8511 H         1 PHE         0.0599
    124 H61         2.7575  -12.8868    1.8041 H         1 PHE         0.0599
    125 H62         4.4665  -14.5710    1.2227 H         1 PHE         0.0559
@<TRIPOS>BOND
     1    3    2 1  
     2    2    5 1  
     3    2    1 1  
     4    5    6 1  
     5    6    7 1  
     6    7    8 ar 
     7    7    9 ar 
     8    3    4 2  
     9   12   11 1  
    10   11   14 1  
    11   11   10 1  
    12   14   15 1  
    13   14   16 1  
    14   12   13 2  
    15   19   18 1  
    16   18   21 1  
    17   18   17 1  
    18   21   22 1  
    19   22   23 2  
    20   22   24 am 
    21   19   20 2  
    22   27   25 1  
    23   27   26 1  
    24   28   27 1  
    25   30   28 1  
    26   29   30 1  
    27   30   31 1  
    28   31   32 1  
    29   33   34 1  
    30   34   36 1  
    31   34   35 1  
    32   36   37 2  
    33   39   40 1  
    34   39   42 1  
    35   38   39 1  
    36   40   41 2  
    37   44   45 1  
    38   44   47 1  
    39   43   44 1  
    40   47   48 1  
    41   48   49 1  
    42   49   50 ar 
    43   49   51 ar 
    44   45   46 2  
    45   53   54 1  
    46   53   56 1  
    47   52   53 1  
    48   56   57 1  
    49   57   59 ar 
    50   57   58 ar 
    51   58   60 ar 
    52   60   62 ar 
    53   61   62 ar 
    54   59   61 ar 
    55   54   63 ar 
    56   54   55 ar 
    57   10    3 am 
    58   17   12 am 
    59   40   43 am 
    60   45   52 am 
    61   31   33 1  
    62   36   38 am 
    63   29   19 am 
    64    1   64 1  
    65    1   65 1  
    66    1   66 1  
    67    2   67 1  
    68    5   68 1  
    69    5   69 1  
    70    6   70 1  
    71    6   71 1  
    72   10   72 1  
    73   11   73 1  
    74   14   74 1  
    75   15   75 1  
    76   15   76 1  
    77   15   77 1  
    78   16   78 1  
    79   16   79 1  
    80   16   80 1  
    81   17   81 1  
    82   18   82 1  
    83   21   83 1  
    84   21   84 1  
    85   24   85 1  
    86   24   86 1  
    87   25   87 1  
    88   25   88 1  
    89   25   89 1  
    90   26   90 1  
    91   26   91 1  
    92   26   92 1  
    93   27   93 1  
    94   28   94 1  
    95   28   95 1  
    96   29   96 1  
    97   30   97 1  
    98   31   98 1  
    99   32   99 1  
   100   33  100 1  
   101   33  101 1  
   102   34  102 1  
   103   35  103 1  
   104   35  104 1  
   105   35  105 1  
   106   38  106 1  
   107   39  107 1  
   108   42  108 1  
   109   42  109 1  
   110   42  110 1  
   111   43  111 1  
   112   44  112 1  
   113   47  113 1  
   114   47  114 1  
   115   48  115 1  
   116   48  116 1  
   117   52  117 1  
   118   53  118 1  
   119   56  119 1  
   120   56  120 1  
   121   58  121 1  
   122   59  122 1  
   123   60  123 1  
   124   61  124 1  
   125   62  125 1  
@<TRIPOS>SUBSTRUCTURE
     1 GLU         1

