### 
### Created by X-TOOL on Mon Sep 10 21:12:48 2018
### 

@<TRIPOS>MOLECULE
1fl3_ligand
   41    42     1     0     0
SMALL
GAST_HUCK


@<TRIPOS>ATOM
      1 C1         59.5400    3.3230  -29.6790 C.ar      1 SPB        -0.0578
      2 C2         58.3370    3.9800  -29.3220 C.ar      1 SPB        -0.0636
      3 C3         57.2970    3.2470  -28.6820 C.ar      1 SPB        -0.0638
      4 C4         57.4620    1.8800  -28.3950 C.ar      1 SPB        -0.0636
      5 C5         58.6460    1.2260  -28.7450 C.ar      1 SPB        -0.0578
      6 C6         59.6890    1.9480  -29.3870 C.ar      1 SPB        -0.0321
      7 C7         60.9550    1.2720  -29.7800 C.2       1 SPB        -0.0624
      8 C8         61.2760   -0.0050  -29.5310 C.2       1 SPB        -0.0643
      9 C9         62.5820   -0.5900  -29.9670 C.ar      1 SPB        -0.0370
     10 C10        63.4690    0.1920  -30.7440 C.ar      1 SPB        -0.0647
     11 C11        64.6930   -0.3390  -31.1580 C.ar      1 SPB        -0.0367
     12 C12        65.0730   -1.6670  -30.8320 C.ar      1 SPB         0.0717
     13 C13        64.1800   -2.4700  -30.0440 C.ar      1 SPB        -0.0367
     14 C14        62.9280   -1.9170  -29.6130 C.ar      1 SPB        -0.0647
     15 N15        66.3590   -2.0810  -31.3510 N.am      1 SPB        -0.2306
     16 C16        66.9390   -3.2280  -31.6390 C.2       1 SPB         0.2062
     17 C17        68.4550   -3.1800  -31.8220 C.3       1 SPB         0.0453
     18 C18        69.0110   -4.0680  -32.8790 C.3       1 SPB        -0.0239
     19 C19        70.5010   -3.9830  -32.9240 C.3       1 SPB         0.0023
     20 C20        71.0470   -4.8510  -34.0070 C.2       1 SPB         0.0349
     21 O21        71.4070   -4.0790  -35.1020 O.co2     1 SPB        -0.5690
     22 O22        66.3740   -4.2990  -31.7320 O.2       1 SPB        -0.3834
     23 O23        71.0830   -6.0660  -33.9470 O.co2     1 SPB        -0.5690
     24 H1         60.3374    3.8685  -30.1706 H         1 SPB         0.0604
     25 H2         58.2086    5.0351  -29.5348 H         1 SPB         0.0612
     26 H3         56.3725    3.7458  -28.4144 H         1 SPB         0.0600
     27 H4         56.6680    1.3321  -27.9007 H         1 SPB         0.0612
     28 H5         58.7690    0.1712  -28.5277 H         1 SPB         0.0604
     29 H6         61.6880    1.8700  -30.3195 H         1 SPB         0.0544
     30 H7         60.5663   -0.6345  -28.9963 H         1 SPB         0.0608
     31 H8         63.1982    1.2051  -31.0186 H         1 SPB         0.0599
     32 H9         65.3677    0.2771  -31.7413 H         1 SPB         0.0519
     33 H10        64.4497   -3.4854  -29.7771 H         1 SPB         0.0519
     34 H11        62.2476   -2.5144  -29.0170 H         1 SPB         0.0599
     35 H12        66.9567   -1.3013  -31.5376 H         1 SPB         0.2291
     36 H13        68.9190   -3.4632  -30.8657 H         1 SPB         0.0509
     37 H14        68.7317   -2.1450  -32.0716 H         1 SPB         0.0509
     38 H15        68.6043   -3.7634  -33.8546 H         1 SPB         0.0307
     39 H16        68.7168   -5.1065  -32.6671 H         1 SPB         0.0307
     40 H17        70.9106   -4.3113  -31.9574 H         1 SPB         0.0432
     41 H18        70.7975   -2.9407  -33.1129 H         1 SPB         0.0432
@<TRIPOS>BOND
     1    1    2 ar 
     2    1    6 ar 
     3    2    3 ar 
     4    3    4 ar 
     5    4    5 ar 
     6    5    6 ar 
     7    6    7 1  
     8    7    8 2  
     9    8    9 1  
    10    9   10 ar 
    11    9   14 ar 
    12   10   11 ar 
    13   11   12 ar 
    14   12   13 ar 
    15   12   15 1  
    16   13   14 ar 
    17   15   16 am 
    18   16   17 1  
    19   16   22 2  
    20   17   18 1  
    21   18   19 1  
    22   19   20 1  
    23   20   21 ar 
    24   20   23 ar 
    25    1   24 1  
    26    2   25 1  
    27    3   26 1  
    28    4   27 1  
    29    5   28 1  
    30    7   29 1  
    31    8   30 1  
    32   10   31 1  
    33   11   32 1  
    34   13   33 1  
    35   14   34 1  
    36   15   35 1  
    37   17   36 1  
    38   17   37 1  
    39   18   38 1  
    40   18   39 1  
    41   19   40 1  
    42   19   41 1  
@<TRIPOS>SUBSTRUCTURE
     1 SPB         1

