### 
### Created by X-TOOL on Mon Sep 10 21:12:45 2018
### 

@<TRIPOS>MOLECULE
1flr_ligand
   36    39     1     0     0
SMALL
GAST_HUCK


@<TRIPOS>ATOM
      1 C1         28.8520   22.3110   42.3360 C.ar      1 FLU         0.0948
      2 O1         29.9320   21.9760   42.8260 O.3       1 FLU        -0.3270
      3 C2         28.1010   21.2550   41.7650 C.ar      1 FLU         0.0164
      4 C3         26.8930   21.6920   41.2150 C.ar      1 FLU         0.1463
      5 O2         26.1410   20.5740   40.5740 O.3       1 FLU        -0.2389
      6 C4         25.1010   21.0270   40.1180 C.2       1 FLU         0.1270
      7 C5         24.4280   19.9240   39.5570 C.2       1 FLU        -0.0203
      8 C6         23.2250   20.2720   38.9490 C.2       1 FLU         0.0657
      9 O3         22.5710   19.3660   38.4320 O.2       1 FLU        -0.4450
     10 C7         22.7230   21.5430   38.9370 C.2       1 FLU        -0.0379
     11 C8         23.4320   22.6160   39.5330 C.2       1 FLU        -0.0506
     12 C9         24.6420   22.2740   40.1320 C.2       1 FLU         0.0389
     13 C10        25.2870   23.4290   40.7560 C.2       1 FLU         0.0243
     14 C11        26.4210   22.9380   41.2590 C.ar      1 FLU         0.0432
     15 C12        27.1540   23.9820   41.9020 C.ar      1 FLU        -0.0500
     16 C13        28.4020   23.5650   42.4050 C.ar      1 FLU        -0.0279
     17 C14        24.7860   24.6530   40.7450 C.ar      1 FLU         0.0186
     18 C15        24.6170   25.4250   39.6050 C.ar      1 FLU        -0.0403
     19 C16        24.0090   26.6640   39.5340 C.ar      1 FLU        -0.0511
     20 C17        23.5240   27.2540   40.7490 C.ar      1 FLU        -0.0515
     21 C18        23.7450   26.4400   41.8670 C.ar      1 FLU        -0.0397
     22 C19        24.3020   25.1910   41.9690 C.ar      1 FLU         0.0276
     23 C20        24.3340   24.6720   43.2830 C.2       1 FLU         0.0676
     24 O4         23.7640   23.4100   43.2770 O.co2     1 FLU        -0.5591
     25 O5         24.8540   25.1510   44.4230 O.co2     1 FLU        -0.5591
     26 H1         29.7817   21.3428   43.5181 H         1 FLU         0.2529
     27 H2         28.4273   20.2213   41.7556 H         1 FLU         0.0506
     28 H3         24.8093   18.9046   39.5950 H         1 FLU         0.0188
     29 H4         21.7622   21.7347   38.4616 H         1 FLU         0.0512
     30 H5         23.0562   23.6381   39.5232 H         1 FLU         0.0659
     31 H6         26.7854   24.9973   41.9940 H         1 FLU         0.0652
     32 H7         29.0350   24.3080   42.8766 H         1 FLU         0.0527
     33 H8         25.0001   25.0156   38.6773 H         1 FLU         0.0696
     34 H9         23.9012   27.1769   38.5851 H         1 FLU         0.0656
     35 H10        23.0400   28.2228   40.7962 H         1 FLU         0.0681
     36 H11        23.4219   26.8687   42.8087 H         1 FLU         0.0671
@<TRIPOS>BOND
     1    1   16 ar 
     2    1    3 ar 
     3    1    2 1  
     4    3    4 ar 
     5    4   14 ar 
     6    4    5 1  
     7    5    6 1  
     8    6   12 1  
     9    6    7 2  
    10    7    8 1  
    11    8   10 1  
    12    8    9 2  
    13   10   11 2  
    14   11   12 1  
    15   12   13 2  
    16   13   17 1  
    17   13   14 1  
    18   14   15 ar 
    19   15   16 ar 
    20   17   22 ar 
    21   17   18 ar 
    22   18   19 ar 
    23   19   20 ar 
    24   20   21 ar 
    25   21   22 ar 
    26   22   23 1  
    27   23   25 ar 
    28   23   24 ar 
    29    2   26 1  
    30    3   27 1  
    31    7   28 1  
    32   10   29 1  
    33   11   30 1  
    34   15   31 1  
    35   16   32 1  
    36   18   33 1  
    37   19   34 1  
    38   20   35 1  
    39   21   36 1  
@<TRIPOS>SUBSTRUCTURE
     1 FLU         1

