### 
### Created by X-TOOL on Mon Sep 10 21:12:48 2018
### 

@<TRIPOS>MOLECULE
1fls_ligand
   51    53     1     0     0
SMALL
GAST_HUCK


@<TRIPOS>ATOM
      1 C1          2.1390   -4.3260    1.5530 C.ar      1 WAY         0.0923
      2 C2          0.7740   -4.5220    1.2400 C.ar      1 WAY         0.0614
      3 CF2        -0.1770   -4.3200    2.2390 C.ar      1 WAY        -0.0648
      4 CH          0.1870   -3.9360    3.5180 C.ar      1 WAY        -0.0803
      5 CF1         1.5230   -3.7460    3.8190 C.ar      1 WAY        -0.0715
      6 C6          2.5040   -3.9350    2.8550 C.ar      1 WAY        -0.0214
      7 C10         0.2170   -4.9310   -0.0740 C.2       1 WAY         0.2142
      8 O11         0.0890   -6.1120   -0.3870 O.2       1 WAY        -0.3949
      9 N12        -0.1050   -4.0060   -0.9910 N.am      1 WAY        -0.1666
     10 O13        -0.5610   -4.4770   -2.2300 O.3       1 WAY        -0.2725
     11 CE          3.9430   -3.7100    3.2560 C.3       1 WAY        -0.0350
     12 N20         3.1430   -4.5010    0.6370 N.am      1 WAY        -0.1597
     13 S21         3.8010   -3.1590   -0.0450 S.o2      1 WAY         0.0892
     14 CD          3.8010   -5.8060    0.5330 C.3       1 WAY         0.0961
     15 CK          7.2490   -6.0910    2.0710 C.ar      1 WAY        -0.0404
     16 CM          6.8830   -6.4270    3.3670 C.ar      1 WAY         0.0042
     17 N25         5.6080   -6.5620    3.7530 N.ar      1 WAY        -0.3043
     18 CJ          4.6600   -6.3570    2.8280 C.ar      1 WAY         0.0147
     19 C27         4.9260   -6.0170    1.5070 C.ar      1 WAY         0.0104
     20 CI          6.2550   -5.8830    1.1280 C.ar      1 WAY        -0.0383
     21 C35         4.2230   -3.5160   -1.7270 C.ar      1 WAY         0.1034
     22 CC1         3.4360   -3.0190   -2.7540 C.ar      1 WAY        -0.0435
     23 CB1         3.7680   -3.3010   -4.0730 C.ar      1 WAY        -0.0313
     24 C38         4.8860   -4.0780   -4.3710 C.ar      1 WAY         0.0908
     25 CB2         5.6680   -4.5700   -3.3270 C.ar      1 WAY        -0.0313
     26 CC2         5.3380   -4.2910   -2.0070 C.ar      1 WAY        -0.0435
     27 O45         5.2180   -4.3600   -5.6970 O.3       1 WAY        -0.3212
     28 CA          6.3700   -5.1560   -5.9010 C.3       1 WAY         0.0594
     29 O50         5.0220   -2.8860    0.6440 O.2       1 WAY        -0.1455
     30 O51         2.7850   -2.1530   -0.0720 O.2       1 WAY        -0.1455
     31 H1         -1.2260   -4.4671    2.0088 H         1 WAY         0.0564
     32 H2         -0.5704   -3.7852    4.2787 H         1 WAY         0.0468
     33 H3          1.8082   -3.4456    4.8207 H         1 WAY         0.0540
     34 H4         -0.0236   -3.0278   -0.7998 H         1 WAY         0.2205
     35 H5          0.1125   -5.0138   -2.6308 H         1 WAY         0.2490
     36 H6          4.5979   -3.8971    2.3922 H         1 WAY         0.0359
     37 H7          4.2079   -4.3976    4.0727 H         1 WAY         0.0359
     38 H8          4.0711   -2.6714    3.5950 H         1 WAY         0.0359
     39 H9          4.2049   -5.9068   -0.4852 H         1 WAY         0.0737
     40 H10         3.0455   -6.5864    0.7067 H         1 WAY         0.0737
     41 H11         8.2943   -5.9930    1.8011 H         1 WAY         0.0693
     42 H12         7.6651   -6.5875    4.1002 H         1 WAY         0.0767
     43 H13         3.6238   -6.4627    3.1282 H         1 WAY         0.0766
     44 H14         6.5116   -5.6193    0.1084 H         1 WAY         0.0679
     45 H15         2.5657   -2.4132   -2.5290 H         1 WAY         0.0608
     46 H16         3.1526   -2.9136   -4.8770 H         1 WAY         0.0542
     47 H17         6.5402   -5.1749   -3.5471 H         1 WAY         0.0542
     48 H18         5.9493   -4.6774   -1.1995 H         1 WAY         0.0608
     49 H19         6.5251   -5.3068   -6.9795 H         1 WAY         0.0577
     50 H20         6.2336   -6.1310   -5.4103 H         1 WAY         0.0577
     51 H21         7.2468   -4.6490   -5.4719 H         1 WAY         0.0577
@<TRIPOS>BOND
     1    1    2 ar 
     2    1    6 ar 
     3   12    1 1  
     4    2    3 ar 
     5    2    7 1  
     6    3    4 ar 
     7    3   31 1  
     8    5    4 ar 
     9    4   32 1  
    10    6    5 ar 
    11    5   33 1  
    12    6   11 1  
    13    7    8 2  
    14    7    9 am 
    15    9   10 1  
    16    9   34 1  
    17   10   35 1  
    18   11   36 1  
    19   11   37 1  
    20   11   38 1  
    21   12   13 am 
    22   14   12 1  
    23   13   21 1  
    24   13   29 2  
    25   13   30 2  
    26   19   14 1  
    27   14   39 1  
    28   14   40 1  
    29   16   15 ar 
    30   15   20 ar 
    31   15   41 1  
    32   17   16 ar 
    33   16   42 1  
    34   18   17 ar 
    35   18   19 ar 
    36   18   43 1  
    37   19   20 ar 
    38   20   44 1  
    39   21   22 ar 
    40   21   26 ar 
    41   22   23 ar 
    42   22   45 1  
    43   23   24 ar 
    44   23   46 1  
    45   24   25 ar 
    46   24   27 1  
    47   25   26 ar 
    48   25   47 1  
    49   26   48 1  
    50   27   28 1  
    51   28   49 1  
    52   28   50 1  
    53   28   51 1  
@<TRIPOS>SUBSTRUCTURE
     1 WAY         1

