### 
### Created by X-TOOL on Mon Sep 10 21:12:45 2018
### 

@<TRIPOS>MOLECULE
1fmb_ligand
   82    84     1     0     0
SMALL
GAST_HUCK


@<TRIPOS>ATOM
      1 S1          6.4880   21.1190    6.5200 S.o2      1 HYB        -0.0237
      2 O2          6.9640   22.3740    6.0080 O.2       1 HYB        -0.1737
      3 O3          5.1110   21.0070    6.8760 O.2       1 HYB        -0.1737
      4 C4          9.6950   22.1480    0.9520 C.ar      1 HYB        -0.0631
      5 C5          8.7560   22.6570    1.7970 C.ar      1 HYB        -0.0707
      6 C6          7.7930   21.7770    2.4330 C.ar      1 HYB        -0.0606
      7 C7          7.8250   20.4490    2.1930 C.ar      1 HYB        -0.0298
      8 C8          8.8370   19.8570    1.2590 C.ar      1 HYB        -0.0120
      9 C9          9.7530   20.7400    0.6730 C.ar      1 HYB        -0.0243
     10 C10        10.7630   20.2350   -0.2150 C.ar      1 HYB        -0.0569
     11 C11        10.8110   18.8940   -0.4930 C.ar      1 HYB        -0.0629
     12 C12         9.8750   17.9990    0.0950 C.ar      1 HYB        -0.0625
     13 C13         8.9000   18.4890    0.9680 C.ar      1 HYB        -0.0548
     14 O14         2.1590   16.6320   -0.4430 O.3       1 HYB        -0.3926
     15 C15         1.1910   17.7140   -0.7010 C.3       1 HYB         0.0689
     16 N16         2.2440   18.8780    1.1540 N.am      1 HYB        -0.2778
     17 C17         1.9270   19.0160   -0.2780 C.3       1 HYB         0.0745
     18 C18         3.2600   19.1980   -1.0430 C.3       1 HYB         0.0061
     19 C19         3.9850   20.5270   -0.9940 C.ar      1 HYB        -0.0408
     20 C20         5.0320   20.8010   -0.1070 C.ar      1 HYB        -0.0603
     21 C21         5.7340   22.0130   -0.1100 C.ar      1 HYB        -0.0686
     22 C22         5.3690   22.9990   -1.0340 C.ar      1 HYB        -0.0687
     23 C23         4.3470   22.7430   -1.9450 C.ar      1 HYB        -0.0686
     24 C24         3.6590   21.5260   -1.9270 C.ar      1 HYB        -0.0603
     25 N25         3.6960   19.9570    3.6110 N.am      1 HYB        -0.2650
     26 C26         2.3190   19.4000    3.5590 C.3       1 HYB         0.1331
     27 C27         1.8300   19.7870    2.1110 C.2       1 HYB         0.2024
     28 O28         1.1100   20.7340    1.8380 O.2       1 HYB        -0.3945
     29 C29         1.3810   19.9220    4.6750 C.3       1 HYB        -0.0063
     30 C30        -0.0900   19.5970    4.3670 C.3       1 HYB        -0.0584
     31 C31         1.8700   19.2880    5.9980 C.3       1 HYB        -0.0584
     32 C32         4.7730   19.2870    4.1060 C.2       1 HYB         0.1850
     33 O33         4.7100   18.1280    4.5340 O.2       1 HYB        -0.3964
     34 C34         6.1180   20.0380    4.0130 C.3       1 HYB         0.0783
     35 C35         6.8410   19.4250    2.7860 C.3       1 HYB         0.0044
     36 C36         6.9770   19.9000    5.3110 C.3       1 HYB         0.0878
     37 C37         6.9310   19.4080    8.6970 C.3       1 HYB        -0.0405
     38 C38         7.4420   20.7170    8.0430 C.3       1 HYB         0.0796
     39 C39         7.1320   21.8660    9.0330 C.3       1 HYB        -0.0405
     40 C40         8.9560   20.6600    7.7230 C.3       1 HYB        -0.0405
     41 H1         10.4092   22.8152    0.4830 H         1 HYB         0.0542
     42 H2          8.7278   23.7224    1.9951 H         1 HYB         0.0595
     43 H3          7.0459   22.1873    3.1027 H         1 HYB         0.0530
     44 H4         11.4829   20.9107   -0.6625 H         1 HYB         0.0609
     45 H5         11.5691   18.5119   -1.1671 H         1 HYB         0.0616
     46 H6          9.9178   16.9402   -0.1333 H         1 HYB         0.0601
     47 H7          8.1897   17.8072    1.4216 H         1 HYB         0.0628
     48 H8          1.7713   15.7982   -0.6816 H         1 HYB         0.2095
     49 H9          0.2809   17.5709   -0.1000 H         1 HYB         0.0582
     50 H10         0.9244   17.7490   -1.7676 H         1 HYB         0.0582
     51 H11         2.7842   18.0896    1.4483 H         1 HYB         0.1857
     52 H12         1.2778   19.8869   -0.4512 H         1 HYB         0.0601
     53 H13         3.0493   18.9899   -2.1024 H         1 HYB         0.0449
     54 H14         3.9565   18.4416   -0.6522 H         1 HYB         0.0449
     55 H15         5.3121   20.0418    0.6142 H         1 HYB         0.0557
     56 H16         6.5442   22.1841    0.5896 H         1 HYB         0.0599
     57 H17         5.8785   23.9558   -1.0405 H         1 HYB         0.0559
     58 H18         4.0816   23.4969   -2.6773 H         1 HYB         0.0599
     59 H19         2.8635   21.3507   -2.6422 H         1 HYB         0.0557
     60 H20         3.8406   20.8823    3.2603 H         1 HYB         0.1883
     61 H21         2.3650   18.3050    3.6524 H         1 HYB         0.0802
     62 H22         1.4789   21.0153    4.7470 H         1 HYB         0.0343
     63 H23        -0.7276   19.9805    5.1772 H         1 HYB         0.0234
     64 H24        -0.2156   18.5072    4.2862 H         1 HYB         0.0234
     65 H25        -0.3792   20.0709    3.4174 H         1 HYB         0.0234
     66 H26         2.9243   19.5540    6.1643 H         1 HYB         0.0234
     67 H27         1.7730   18.1939    5.9382 H         1 HYB         0.0234
     68 H28         1.2607   19.6651    6.8326 H         1 HYB         0.0234
     69 H29         5.9295   21.1073    3.8369 H         1 HYB         0.0578
     70 H30         7.3937   18.5270    3.0993 H         1 HYB         0.0466
     71 H31         6.0969   19.1503    2.0238 H         1 HYB         0.0466
     72 H32         6.8347   18.8944    5.7335 H         1 HYB         0.0530
     73 H33         8.0379   20.0454    5.0596 H         1 HYB         0.0530
     74 H34         7.5196   19.1962    9.6018 H         1 HYB         0.0251
     75 H35         7.0397   18.5760    7.9857 H         1 HYB         0.0251
     76 H36         5.8710   19.5228    8.9677 H         1 HYB         0.0251
     77 H37         7.6721   21.6935    9.9756 H         1 HYB         0.0251
     78 H38         6.0504   21.8978    9.2307 H         1 HYB         0.0251
     79 H39         7.4533   22.8231    8.5962 H         1 HYB         0.0251
     80 H40         9.5155   20.4194    8.6390 H         1 HYB         0.0251
     81 H41         9.2863   21.6358    7.3373 H         1 HYB         0.0251
     82 H42         9.1417   19.8843    6.9655 H         1 HYB         0.0251
@<TRIPOS>BOND
     1    1    2 2  
     2    1    3 2  
     3   36    1 1  
     4    1   38 1  
     5    5    4 ar 
     6    9    4 ar 
     7    6    5 ar 
     8    7    6 ar 
     9    7    8 ar 
    10   35    7 1  
    11    8    9 ar 
    12    8   13 ar 
    13    9   10 ar 
    14   10   11 ar 
    15   12   11 ar 
    16   13   12 ar 
    17   15   14 1  
    18   17   15 1  
    19   17   18 1  
    20   18   19 1  
    21   19   20 ar 
    22   19   24 ar 
    23   20   21 ar 
    24   21   22 ar 
    25   23   22 ar 
    26   24   23 ar 
    27   26   25 1  
    28   25   32 am 
    29   27   26 1  
    30   26   29 1  
    31   27   28 2  
    32   29   30 1  
    33   29   31 1  
    34   32   33 2  
    35   32   34 1  
    36   34   35 1  
    37   34   36 1  
    38   38   39 1  
    39   38   40 1  
    40   38   37 1  
    41   16   27 am 
    42   16   17 1  
    43    4   41 1  
    44    5   42 1  
    45    6   43 1  
    46   10   44 1  
    47   11   45 1  
    48   12   46 1  
    49   13   47 1  
    50   14   48 1  
    51   15   49 1  
    52   15   50 1  
    53   16   51 1  
    54   17   52 1  
    55   18   53 1  
    56   18   54 1  
    57   20   55 1  
    58   21   56 1  
    59   22   57 1  
    60   23   58 1  
    61   24   59 1  
    62   25   60 1  
    63   26   61 1  
    64   29   62 1  
    65   30   63 1  
    66   30   64 1  
    67   30   65 1  
    68   31   66 1  
    69   31   67 1  
    70   31   68 1  
    71   34   69 1  
    72   35   70 1  
    73   35   71 1  
    74   36   72 1  
    75   36   73 1  
    76   37   74 1  
    77   37   75 1  
    78   37   76 1  
    79   39   77 1  
    80   39   78 1  
    81   39   79 1  
    82   40   80 1  
    83   40   81 1  
    84   40   82 1  
@<TRIPOS>SUBSTRUCTURE
     1 HYB         1

