### 
### Created by X-TOOL on Mon Sep 10 21:12:47 2018
### 

@<TRIPOS>MOLECULE
1fo0_ligand
  135   136     1     0     0
SMALL
GAST_HUCK


@<TRIPOS>ATOM
      1 N          26.6090   42.0530   46.0620 N.4       1 ILE         0.2381
      2 CA         26.3900   40.6410   46.4320 C.3       1 ILE         0.0676
      3 C          24.9150   40.3210   46.6720 C.2       1 ILE         0.2271
      4 O          24.1470   41.1170   47.1870 O.2       1 ILE        -0.3907
      5 CB         27.1940   40.2640   47.6880 C.3       1 ILE         0.0164
      6 CG1        26.7320   41.1110   48.8660 C.3       1 ILE        -0.0460
      7 CG2        28.6480   40.5650   47.3730 C.3       1 ILE        -0.0551
      8 CD1        27.4910   40.8010   50.1280 C.3       1 ILE        -0.0647
      9 N          24.5470   39.1220   46.2520 N.am      1 ASN        -0.2589
     10 CA         23.2090   38.5980   46.3130 C.3       1 ASN         0.1477
     11 C          22.7560   38.3920   47.7400 C.2       1 ASN         0.2064
     12 O          23.4640   38.5930   48.7080 O.2       1 ASN        -0.3942
     13 CB         23.1280   37.2960   45.5000 C.3       1 ASN         0.0773
     14 CG         21.7500   36.9800   44.9770 C.2       1 ASN         0.1780
     15 OD1        20.7520   37.6250   45.3150 O.2       1 ASN        -0.3970
     16 ND2        21.5940   35.9800   44.1290 N.am      1 ASN        -0.3007
     17 N          21.5160   37.9820   47.8940 N.am      1 PHE        -0.2618
     18 CA         20.9270   37.7010   49.2180 C.3       1 PHE         0.1404
     19 C          20.8690   36.2110   49.4980 C.2       1 PHE         0.2060
     20 O          21.0020   35.3470   48.6110 O.2       1 PHE        -0.3942
     21 CB         19.5320   38.2860   49.1190 C.3       1 PHE         0.0214
     22 CG         18.5490   38.0700   50.1990 C.ar      1 PHE        -0.0386
     23 CD1        18.5890   38.7000   51.4260 C.ar      1 PHE        -0.0601
     24 CD2        17.4760   37.2240   49.9150 C.ar      1 PHE        -0.0601
     25 CE1        17.6060   38.4910   52.3810 C.ar      1 PHE        -0.0686
     26 CE2        16.4950   37.0260   50.8500 C.ar      1 PHE        -0.0686
     27 CZ         16.5580   37.6470   52.0750 C.ar      1 PHE        -0.0687
     28 N          20.6770   35.8650   50.7500 N.am      1 ASP        -0.2620
     29 CA         20.5230   34.5070   51.2770 C.3       1 ASP         0.1423
     30 C          19.0130   34.2040   51.3840 C.2       1 ASP         0.2057
     31 O          18.3460   34.6060   52.3490 O.2       1 ASP        -0.3943
     32 CB         21.0060   34.4810   52.7520 C.3       1 ASP         0.0406
     33 CG         22.5300   34.4940   52.7060 C.2       1 ASP         0.0393
     34 OD1        23.1100   35.4850   53.1840 O.co2     1 ASP        -0.5688
     35 OD2        23.0620   33.5170   52.1310 O.co2     1 ASP        -0.5688
     36 N          18.5620   33.5270   50.3400 N.am      1 PHE        -0.2618
     37 CA         17.1940   33.1490   50.1560 C.3       1 PHE         0.1404
     38 C          16.7390   31.9970   51.0390 C.2       1 PHE         0.2061
     39 O          17.3310   30.9160   51.0680 O.2       1 PHE        -0.3942
     40 CB         16.9030   32.7220   48.6960 C.3       1 PHE         0.0214
     41 CG         17.0350   33.8660   47.7330 C.ar      1 PHE        -0.0386
     42 CD1        15.9770   34.7580   47.5170 C.ar      1 PHE        -0.0601
     43 CD2        18.2300   34.0940   47.0730 C.ar      1 PHE        -0.0601
     44 CE1        16.1010   35.8180   46.6680 C.ar      1 PHE        -0.0686
     45 CE2        18.3640   35.1770   46.2250 C.ar      1 PHE        -0.0686
     46 CZ         17.3000   36.0280   46.0050 C.ar      1 PHE        -0.0687
     47 N          15.6360   32.2320   51.7320 N.am      1 ASN        -0.2615
     48 CA         15.0050   31.2030   52.5320 C.3       1 ASN         0.1476
     49 C          14.0900   30.4340   51.5950 C.2       1 ASN         0.2063
     50 O          14.2190   30.5940   50.3620 O.2       1 ASN        -0.3942
     51 CB         14.2430   31.8510   53.6740 C.3       1 ASN         0.0773
     52 CG         15.0170   31.6430   54.9730 C.2       1 ASN         0.1780
     53 OD1        15.6930   30.6110   55.0810 O.2       1 ASN        -0.3970
     54 ND2        14.9040   32.6060   55.8720 N.am      1 ASN        -0.3007
     55 N          13.1720   29.6070   52.0800 N.am      1 THR        -0.2612
     56 CA         12.3740   28.8710   51.0920 C.3       1 THR         0.1564
     57 C          10.9470   29.3340   51.1720 C.2       1 THR         0.2059
     58 O          10.5520   30.0140   52.1020 O.2       1 THR        -0.3943
     59 CB         12.4300   27.3630   51.4010 C.3       1 THR         0.0924
     60 OG1        11.9520   27.1150   52.7340 O.3       1 THR        -0.3874
     61 CG2        13.8590   26.8490   51.3130 C.3       1 THR        -0.0346
     62 N          10.1320   28.8830   50.2510 N.am      1 ILE        -0.2691
     63 CA          8.7150   29.2240   50.2880 C.3       1 ILE         0.0969
     64 C           7.9020   28.0610   50.9070 C.2       1 ILE         0.0604
     65 O           6.6350   28.2370   50.9000 O.co2     1 ILE        -0.5666
     66 CB          8.2020   29.3430   48.8380 C.3       1 ILE        -0.0092
     67 CG1         8.4090   27.9650   48.1820 C.3       1 ILE        -0.0497
     68 CG2         8.8490   30.4480   48.0920 C.3       1 ILE        -0.0588
     69 CD1         7.8290   27.9670   46.8190 C.3       1 ILE        -0.0649
     70 OXT         8.5440   27.0430   51.3010 O.co2     1 ILE        -0.5666
     71 H1         27.5933   42.2130   45.9150 H         1 ILE         0.2015
     72 H2         26.2788   42.6499   46.8041 H         1 ILE         0.2015
     73 H3         26.1046   42.2604   45.2143 H         1 ILE         0.2015
     74 H4         26.7424   40.0190   45.5960 H         1 ILE         0.1101
     75 H5         27.0644   39.1972   47.9226 H         1 ILE         0.0378
     76 H6         25.6629   40.9199   49.0408 H         1 ILE         0.0269
     77 H7         26.8789   42.1724   48.6171 H         1 ILE         0.0269
     78 H8         28.9737   39.9495   46.5215 H         1 ILE         0.0236
     79 H9         29.2689   40.3339   48.2511 H         1 ILE         0.0236
     80 H10        28.7552   41.6296   47.1180 H         1 ILE         0.0236
     81 H11        27.1199   41.4376   50.9448 H         1 ILE         0.0230
     82 H12        28.5619   40.9957   49.9691 H         1 ILE         0.0230
     83 H13        27.3459   39.7432   50.3927 H         1 ILE         0.0230
     84 H14        25.2548   38.5335   45.8613 H         1 ASN         0.1886
     85 H15        22.5331   39.3323   45.8504 H         1 ASN         0.0826
     86 H16        23.4511   36.4656   46.1450 H         1 ASN         0.0551
     87 H17        23.8114   37.3815   44.6423 H         1 ASN         0.0551
     88 H18        20.6844   35.7614   43.7756 H         1 ASN         0.1814
     89 H19        22.3854   35.4413   43.8402 H         1 ASN         0.1814
     90 H20        20.9486   37.8553   47.0804 H         1 PHE         0.1885
     91 H21        21.5036   38.1970   50.0127 H         1 PHE         0.0823
     92 H22        19.0845   37.8793   48.2001 H         1 PHE         0.0474
     93 H23        19.6535   39.3745   49.0171 H         1 PHE         0.0474
     94 H24        19.4082   39.3741   51.6484 H         1 PHE         0.0557
     95 H25        17.4190   36.7239   48.9549 H         1 PHE         0.0557
     96 H26        17.6595   38.9799   53.3470 H         1 PHE         0.0599
     97 H27        15.6604   36.3730   50.6219 H         1 PHE         0.0599
     98 H28        15.7777   37.4721   52.8068 H         1 PHE         0.0559
     99 H29        20.6309   36.6095   51.4161 H         1 ASP         0.1884
    100 H30        21.0542   33.7734   50.6528 H         1 ASP         0.0819
    101 H31        20.6483   33.5697   53.2535 H         1 ASP         0.0478
    102 H32        20.6341   35.3655   53.2898 H         1 ASP         0.0478
    103 H33        19.2194   33.2626   49.6344 H         1 PHE         0.1885
    104 H34        16.5793   34.0292   50.3952 H         1 PHE         0.0823
    105 H35        15.8774   32.3284   48.6398 H         1 PHE         0.0474
    106 H36        17.6145   31.9337   48.4090 H         1 PHE         0.0474
    107 H37        15.0384   34.6023   48.0364 H         1 PHE         0.0557
    108 H38        19.0654   33.4194   47.2220 H         1 PHE         0.0557
    109 H39        15.2667   36.4924   46.5126 H         1 PHE         0.0599
    110 H40        19.3108   35.3592   45.7295 H         1 PHE         0.0599
    111 H41        17.4017   36.8583   45.3156 H         1 PHE         0.0559
    112 H42        15.2276   33.1443   51.7023 H         1 ASN         0.1885
    113 H43        15.7647   30.5241   52.9466 H         1 ASN         0.0826
    114 H44        13.2477   31.3907   53.7607 H         1 ASN         0.0551
    115 H45        14.1332   32.9280   53.4792 H         1 ASN         0.0551
    116 H46        15.3851   32.5334   56.7456 H         1 ASN         0.1814
    117 H47        14.3374   33.4069   55.6783 H         1 ASN         0.1814
    118 H48        13.0319   29.4918   53.0634 H         1 THR         0.1884
    119 H49        12.7702   29.0574   50.0829 H         1 THR         0.0826
    120 H50        11.8010   26.8243   50.6770 H         1 THR         0.0639
    121 H51        12.5049   27.5712   53.3575 H         1 THR         0.2101
    122 H52        13.8757   25.7721   51.5368 H         1 THR         0.0257
    123 H53        14.4868   27.3845   52.0404 H         1 THR         0.0257
    124 H54        14.2478   27.0186   50.2981 H         1 THR         0.0257
    125 H55        10.4840   28.3011   49.5179 H         1 ILE         0.1875
    126 H56         8.5595   30.1580   50.8478 H         1 ILE         0.0729
    127 H57         7.1232   29.5561   48.8655 H         1 ILE         0.0338
    128 H58         7.9131   27.1932   48.7889 H         1 ILE         0.0267
    129 H59         9.4855   27.7476   48.1206 H         1 ILE         0.0267
    130 H60         8.6633   31.3994   48.6119 H         1 ILE         0.0234
    131 H61         8.4315   30.4980   47.0756 H         1 ILE         0.0234
    132 H62         9.9325   30.2668   48.0349 H         1 ILE         0.0234
    133 H63         7.9794   26.9810   46.3551 H         1 ILE         0.0230
    134 H64         8.3247   28.7379   46.2107 H         1 ILE         0.0230
    135 H65         6.7522   28.1835   46.8790 H         1 ILE         0.0230
@<TRIPOS>BOND
     1    2    1 1  
     2    2    5 1  
     3    3    2 1  
     4    3    4 2  
     5    5    7 1  
     6    5    6 1  
     7    6    8 1  
     8   10    9 1  
     9   10   13 1  
    10   11   10 1  
    11   11   12 2  
    12   13   14 1  
    13   14   16 am 
    14   14   15 2  
    15    9    3 am 
    16   18   17 1  
    17   18   21 1  
    18   19   18 1  
    19   19   20 2  
    20   21   22 1  
    21   22   23 ar 
    22   22   24 ar 
    23   24   26 ar 
    24   26   27 ar 
    25   25   27 ar 
    26   23   25 ar 
    27   17   11 am 
    28   29   28 1  
    29   29   32 1  
    30   30   29 1  
    31   30   31 2  
    32   32   33 1  
    33   33   34 ar 
    34   33   35 ar 
    35   28   19 am 
    36   37   36 1  
    37   37   40 1  
    38   38   37 1  
    39   38   39 2  
    40   40   41 1  
    41   41   42 ar 
    42   41   43 ar 
    43   43   45 ar 
    44   45   46 ar 
    45   44   46 ar 
    46   42   44 ar 
    47   36   30 am 
    48   48   47 1  
    49   48   51 1  
    50   49   48 1  
    51   49   50 2  
    52   51   52 1  
    53   52   54 am 
    54   52   53 2  
    55   47   38 am 
    56   56   55 1  
    57   56   59 1  
    58   57   56 1  
    59   57   58 2  
    60   59   61 1  
    61   59   60 1  
    62   55   49 am 
    63   62   63 1  
    64   63   66 1  
    65   63   64 1  
    66   64   65 ar 
    67   64   70 ar 
    68   66   68 1  
    69   66   67 1  
    70   67   69 1  
    71   57   62 am 
    72    1   71 1  
    73    1   72 1  
    74    1   73 1  
    75    2   74 1  
    76    5   75 1  
    77    6   76 1  
    78    6   77 1  
    79    7   78 1  
    80    7   79 1  
    81    7   80 1  
    82    8   81 1  
    83    8   82 1  
    84    8   83 1  
    85    9   84 1  
    86   10   85 1  
    87   13   86 1  
    88   13   87 1  
    89   16   88 1  
    90   16   89 1  
    91   17   90 1  
    92   18   91 1  
    93   21   92 1  
    94   21   93 1  
    95   23   94 1  
    96   24   95 1  
    97   25   96 1  
    98   26   97 1  
    99   27   98 1  
   100   28   99 1  
   101   29  100 1  
   102   32  101 1  
   103   32  102 1  
   104   36  103 1  
   105   37  104 1  
   106   40  105 1  
   107   40  106 1  
   108   42  107 1  
   109   43  108 1  
   110   44  109 1  
   111   45  110 1  
   112   46  111 1  
   113   47  112 1  
   114   48  113 1  
   115   51  114 1  
   116   51  115 1  
   117   54  116 1  
   118   54  117 1  
   119   55  118 1  
   120   56  119 1  
   121   59  120 1  
   122   60  121 1  
   123   61  122 1  
   124   61  123 1  
   125   61  124 1  
   126   62  125 1  
   127   63  126 1  
   128   66  127 1  
   129   67  128 1  
   130   67  129 1  
   131   68  130 1  
   132   68  131 1  
   133   68  132 1  
   134   69  133 1  
   135   69  134 1  
   136   69  135 1  
@<TRIPOS>SUBSTRUCTURE
     1 ILE         1

