### 
### Created by X-TOOL on Mon Sep 10 21:12:48 2018
### 

@<TRIPOS>MOLECULE
1fo2_ligand
   25    25     1     0     0
SMALL
GAST_HUCK


@<TRIPOS>ATOM
      1 C4         39.0090   40.2680   25.5130 C.3       1 DMJ         0.1280
      2 O4         39.2170   40.5810   26.8980 O.3       1 DMJ        -0.3835
      3 C3         37.8240   39.1900   25.5270 C.3       1 DMJ         0.1171
      4 O3         37.4510   38.7100   24.2400 O.3       1 DMJ        -0.3862
      5 C2         36.5330   39.8070   26.2310 C.3       1 DMJ         0.1231
      6 O2         35.4780   38.8590   26.2210 O.3       1 DMJ        -0.3838
      7 C1         36.1110   41.1420   25.4880 C.3       1 DMJ        -0.0040
      8 N5         37.2720   42.0180   25.5830 N.4       1 DMJ         0.2346
      9 C5         38.5930   41.6400   24.8470 C.3       1 DMJ         0.0301
     10 C6         38.3690   41.5450   23.3070 C.3       1 DMJ         0.0893
     11 O6         38.1770   42.3670   22.1460 O.3       1 DMJ        -0.3894
     12 H1         39.9086   39.8568   25.0317 H         1 DMJ         0.0678
     13 H2         39.4587   39.7911   27.3672 H         1 DMJ         0.2102
     14 H3         38.1686   38.3290   26.1186 H         1 DMJ         0.0649
     15 H4         38.2119   38.3391   23.8088 H         1 DMJ         0.2100
     16 H5         36.7776   40.0481   27.2760 H         1 DMJ         0.0674
     17 H6         34.7204   39.2254   26.6618 H         1 DMJ         0.2101
     18 H7         35.2414   41.5998   25.9822 H         1 DMJ         0.0840
     19 H8         35.8683   40.9368   24.4349 H         1 DMJ         0.0840
     20 H9         37.4969   42.0986   26.5623 H         1 DMJ         0.2019
     21 H10        36.9880   42.9177   25.2282 H         1 DMJ         0.2019
     22 H11        39.3676   42.3972   25.0383 H         1 DMJ         0.0900
     23 H12        37.4711   40.9109   23.2650 H         1 DMJ         0.0614
     24 H13        39.2477   40.9569   23.0038 H         1 DMJ         0.0614
     25 H14        38.0787   41.8134   21.3802 H         1 DMJ         0.2097
@<TRIPOS>BOND
     1    1    9 1  
     2    1    3 1  
     3    1    2 1  
     4    3    5 1  
     5    3    4 1  
     6    5    7 1  
     7    5    6 1  
     8    7    8 1  
     9    8    9 1  
    10    9   10 1  
    11   10   11 1  
    12    1   12 1  
    13    2   13 1  
    14    3   14 1  
    15    4   15 1  
    16    5   16 1  
    17    6   17 1  
    18    7   18 1  
    19    7   19 1  
    20    8   20 1  
    21    8   21 1  
    22    9   22 1  
    23   10   23 1  
    24   10   24 1  
    25   11   25 1  
@<TRIPOS>SUBSTRUCTURE
     1 DMJ         1

