### 
### Created by X-TOOL on Mon Sep 10 21:12:48 2018
### 

@<TRIPOS>MOLECULE
1fo3_ligand
   28    29     1     0     0
SMALL
GAST_HUCK


@<TRIPOS>ATOM
      1 C4         38.5320   40.2520   25.6920 C.3       1 KIF         0.1090
      2 O4         38.7330   40.4580   27.1030 O.3       1 KIF        -0.3868
      3 C3         37.2750   39.2810   25.5610 C.3       1 KIF         0.1133
      4 O3         36.9690   38.8970   24.2210 O.3       1 KIF        -0.3864
      5 C2         35.9920   39.9660   26.1760 C.3       1 KIF         0.1280
      6 O2         34.8570   39.1200   26.0040 O.3       1 KIF        -0.3847
      7 C1         35.7780   41.3480   25.4640 C.3       1 KIF         0.1599
      8 N9         34.6510   42.0700   26.0750 N.am      1 KIF        -0.2491
      9 C8         35.1260   43.3360   26.1780 C.2       1 KIF         0.2867
     10 O8         34.4420   44.3180   26.4090 O.2       1 KIF        -0.3583
     11 C7         36.6030   43.3560   25.9670 C.2       1 KIF         0.2894
     12 O7         37.3260   44.3350   26.0040 O.2       1 KIF        -0.3581
     13 N          36.9520   42.1040   25.7920 N.am      1 KIF        -0.2273
     14 C5         38.2610   41.6890   25.1200 C.3       1 KIF         0.0996
     15 C6         38.2190   41.7310   23.5610 C.3       1 KIF         0.0701
     16 O6         37.8300   42.5590   22.4540 O.3       1 KIF        -0.3926
     17 H1         39.4131   39.8030   25.2103 H         1 KIF         0.0644
     18 H2         38.9000   39.6225   27.5233 H         1 KIF         0.2100
     19 H3         37.4990   38.3687   26.1332 H         1 KIF         0.0647
     20 H4         37.7289   38.4816   23.8304 H         1 KIF         0.2100
     21 H5         36.1491   40.1348   27.2515 H         1 KIF         0.0665
     22 H6         34.0910   39.5399   26.3774 H         1 KIF         0.2101
     23 H7         35.6391   41.2300   24.3792 H         1 KIF         0.0861
     24 H8         33.7565   41.7151   26.3469 H         1 KIF         0.1890
     25 H9         39.0638   42.3676   25.4440 H         1 KIF         0.0610
     26 H10        37.6409   40.8199   23.3476 H         1 KIF         0.0581
     27 H11        39.2788   41.5569   23.3233 H         1 KIF         0.0581
     28 H12        36.8987   42.7391   22.5066 H         1 KIF         0.2095
@<TRIPOS>BOND
     1    1   14 1  
     2    1    3 1  
     3    1    2 1  
     4    3    5 1  
     5    3    4 1  
     6    5    7 1  
     7    5    6 1  
     8    7   13 1  
     9    7    8 1  
    10    8    9 am 
    11    9   11 1  
    12    9   10 2  
    13   11   13 am 
    14   11   12 2  
    15   13   14 1  
    16   14   15 1  
    17   15   16 1  
    18    1   17 1  
    19    2   18 1  
    20    3   19 1  
    21    4   20 1  
    22    5   21 1  
    23    6   22 1  
    24    7   23 1  
    25    8   24 1  
    26   14   25 1  
    27   15   26 1  
    28   15   27 1  
    29   16   28 1  
@<TRIPOS>SUBSTRUCTURE
     1 KIF         1

