### 
### Created by X-TOOL on Mon Sep 10 21:12:45 2018
### 

@<TRIPOS>MOLECULE
1fpc_ligand
   74    76     1     0     0
SMALL
GAST_HUCK


@<TRIPOS>ATOM
      1 C1         17.5650  -17.0930   22.3550 C.ar      1 0ZI         0.1103
      2 C2         18.3640  -17.0780   21.1800 C.ar      1 0ZI        -0.0380
      3 C3         19.6660  -16.6580   21.2390 C.ar      1 0ZI        -0.0621
      4 C4         20.2110  -16.2220   22.4590 C.ar      1 0ZI        -0.0544
      5 C4A        19.4500  -16.2300   23.6240 C.ar      1 0ZI         0.0095
      6 C5         19.9740  -15.8220   24.8170 C.ar      1 0ZI         0.0537
      7 C6         19.2000  -15.7920   25.9650 C.ar      1 0ZI        -0.0457
      8 C7         17.8740  -16.2710   25.8910 C.ar      1 0ZI        -0.0783
      9 C8         17.3140  -16.6790   24.6970 C.ar      1 0ZI        -0.0696
     10 C8A        18.0840  -16.6810   23.5630 C.ar      1 0ZI        -0.0026
     11 N          21.2910  -15.3480   24.8670 N.pl3     1 0ZI        -0.3105
     12 CM1        21.6710  -13.9230   24.9480 C.3       1 0ZI         0.0171
     13 CM2        22.2730  -16.2210   25.8110 C.3       1 0ZI         0.0171
     14 S          15.7800  -17.6380   22.1970 S.o2      1 0ZI         0.0694
     15 O1S        15.6560  -18.0790   20.7840 O.2       1 0ZI        -0.1506
     16 O2S        15.0610  -18.5890   23.1260 O.2       1 0ZI        -0.1506
     17 N          14.6980  -16.2450   22.3190 N.am      1 0ZI        -0.2258
     18 CA         14.7870  -15.1650   21.3470 C.3       1 0ZI         0.1265
     19 C          15.8750  -14.1850   21.7940 C.2       1 0ZI         0.2002
     20 O          16.1180  -13.9270   22.9870 O.2       1 0ZI        -0.3948
     21 CB         13.4540  -14.4560   21.2730 C.3       1 0ZI        -0.0128
     22 CG         11.9190  -14.5210   21.3030 C.3       1 0ZI        -0.0160
     23 CD         11.4410  -13.1890   21.2000 C.3       1 0ZI         0.0627
     24 NE         10.9800  -12.7740   22.5580 N.pl3     1 0ZI        -0.2723
     25 CZ         11.1730  -11.7290   23.3130 C.cat     1 0ZI         0.2882
     26 NH1        11.8990  -10.7000   22.7900 N.pl3     1 0ZI        -0.2849
     27 NH2        10.6820  -11.7010   24.4910 N.pl3     1 0ZI        -0.2849
     28 N1         16.8870  -13.8810   20.8120 N.am      1 0ZI        -0.2716
     29 C2         17.8720  -12.8090   21.3660 C.3       1 0ZI         0.0342
     30 C3         19.1770  -12.8640   20.5860 C.3       1 0ZI        -0.0296
     31 C4         18.8650  -12.9240   19.0080 C.3       1 0ZI        -0.0376
     32 C5         17.7980  -14.0640   18.5390 C.3       1 0ZI        -0.0296
     33 C6         16.4600  -13.9480   19.3070 C.3       1 0ZI         0.0342
     34 C1'        20.1770  -13.1700   18.4840 C.3       1 0ZI        -0.0529
     35 C2'        20.3190  -13.0360   16.9390 C.3       1 0ZI        -0.0650
     36 H1         17.9419  -17.3998   20.2348 H         1 0ZI         0.0632
     37 H2         20.2771  -16.6618   20.3437 H         1 0ZI         0.0586
     38 H3         21.2374  -15.8750   22.4928 H         1 0ZI         0.0631
     39 H4         19.6020  -15.4105   26.8966 H         1 0ZI         0.0463
     40 H5         17.2796  -16.3197   26.7962 H         1 0ZI         0.0573
     41 H6         16.2776  -16.9941   24.6567 H         1 0ZI         0.0468
     42 H7         22.7673  -13.8368   24.9737 H         1 0ZI         0.0483
     43 H8         21.2470  -13.4818   25.8621 H         1 0ZI         0.0483
     44 H9         21.2818  -13.3891   24.0685 H         1 0ZI         0.0483
     45 H10        21.9907  -17.2825   25.7513 H         1 0ZI         0.0483
     46 H11        22.1837  -15.8758   26.8516 H         1 0ZI         0.0483
     47 H12        23.3122  -16.0983   25.4719 H         1 0ZI         0.0483
     48 H13        14.0242  -16.1990   23.0565 H         1 0ZI         0.1705
     49 H14        15.0421  -15.5741   20.3583 H         1 0ZI         0.0753
     50 H15        13.5820  -13.9586   20.3003 H         1 0ZI         0.0309
     51 H16        13.6070  -13.7258   22.0813 H         1 0ZI         0.0309
     52 H17        11.5791  -14.9714   22.2472 H         1 0ZI         0.0301
     53 H18        11.5505  -15.1201   20.4573 H         1 0ZI         0.0301
     54 H19        10.6033  -13.1441   20.4886 H         1 0ZI         0.0689
     55 H20        12.2486  -12.5251   20.8579 H         1 0ZI         0.0689
     56 H21        10.3685  -13.4750   23.0003 H         1 0ZI         0.2642
     57 H22        12.0749   -9.8556   23.3529 H         1 0ZI         0.2615
     58 H23        12.2714  -10.7672   21.8320 H         1 0ZI         0.2615
     59 H24        10.1401  -12.5034   24.8423 H         1 0ZI         0.2615
     60 H25        10.8277  -10.8760   25.0902 H         1 0ZI         0.2615
     61 H26        18.0720  -13.0100   22.4288 H         1 0ZI         0.0522
     62 H27        17.4238  -11.8101   21.2597 H         1 0ZI         0.0522
     63 H28        19.7417  -13.7606   20.8812 H         1 0ZI         0.0287
     64 H29        19.7729  -11.9661   20.8068 H         1 0ZI         0.0287
     65 H30        18.4864  -11.9499   18.6649 H         1 0ZI         0.0302
     66 H31        18.2319  -15.0571   18.7274 H         1 0ZI         0.0287
     67 H32        17.6022  -13.9475   17.4629 H         1 0ZI         0.0287
     68 H33        15.9194  -13.0360   19.0136 H         1 0ZI         0.0522
     69 H34        15.8253  -14.8267   19.1201 H         1 0ZI         0.0522
     70 H35        20.4668  -14.1938   18.7632 H         1 0ZI         0.0265
     71 H36        20.8682  -12.4530   18.9510 H         1 0ZI         0.0265
     72 H37        21.3589  -13.2443   16.6470 H         1 0ZI         0.0230
     73 H38        20.0500  -12.0142   16.6333 H         1 0ZI         0.0230
     74 H39        19.6486  -13.7549   16.4454 H         1 0ZI         0.0230
@<TRIPOS>BOND
     1   14    1 1  
     2    1   10 ar 
     3    1    2 ar 
     4    2    3 ar 
     5    3    4 ar 
     6    5    4 ar 
     7   10    5 ar 
     8    5    6 ar 
     9    6   11 1  
    10    6    7 ar 
    11    8    7 ar 
    12    9    8 ar 
    13   10    9 ar 
    14   11   13 1  
    15   11   12 1  
    16   14   16 2  
    17   14   15 2  
    18   19   18 1  
    19   18   21 1  
    20   18   17 1  
    21   21   22 1  
    22   22   23 1  
    23   23   24 1  
    24   24   25 ar 
    25   25   26 ar 
    26   25   27 ar 
    27   19   20 2  
    28   28   33 1  
    29   28   29 1  
    30   29   30 1  
    31   30   31 1  
    32   31   34 1  
    33   32   31 1  
    34   33   32 1  
    35   34   35 1  
    36   17   14 am 
    37   19   28 am 
    38    2   36 1  
    39    3   37 1  
    40    4   38 1  
    41    7   39 1  
    42    8   40 1  
    43    9   41 1  
    44   12   42 1  
    45   12   43 1  
    46   12   44 1  
    47   13   45 1  
    48   13   46 1  
    49   13   47 1  
    50   17   48 1  
    51   18   49 1  
    52   21   50 1  
    53   21   51 1  
    54   22   52 1  
    55   22   53 1  
    56   23   54 1  
    57   23   55 1  
    58   24   56 1  
    59   26   57 1  
    60   26   58 1  
    61   27   59 1  
    62   27   60 1  
    63   29   61 1  
    64   29   62 1  
    65   30   63 1  
    66   30   64 1  
    67   31   65 1  
    68   32   66 1  
    69   32   67 1  
    70   33   68 1  
    71   33   69 1  
    72   34   70 1  
    73   34   71 1  
    74   35   72 1  
    75   35   73 1  
    76   35   74 1  
@<TRIPOS>SUBSTRUCTURE
     1 0ZI         1

