### 
### Created by X-TOOL on Mon Sep 10 21:12:47 2018
### 

@<TRIPOS>MOLECULE
1fsg_ligand
   17    18     1     0     0
SMALL
GAST_HUCK


@<TRIPOS>ATOM
      1 C9         17.8570   39.7410  -15.2030 C.2       1 9DG        -0.0681
      2 C8         17.0950   38.6400  -15.2880 C.2       1 9DG         0.0173
      3 N7         16.2910   38.5520  -14.1760 N.pl3     1 9DG        -0.2870
      4 C5         16.5240   39.6770  -13.3680 C.2       1 9DG         0.1260
      5 C6         15.8650   40.1100  -12.2230 C.2       1 9DG         0.2362
      6 O6         14.9750   39.5540  -11.5480 O.2       1 9DG        -0.4038
      7 N1         16.4180   41.3280  -11.7960 N.am      1 9DG        -0.1852
      8 C2         17.3810   42.0220  -12.4260 C.2       1 9DG         0.2218
      9 N2         17.7420   43.2050  -11.8300 N.pl3     1 9DG        -0.2845
     10 N3         17.9970   41.6150  -13.4810 N.2       1 9DG        -0.3277
     11 C4         17.5280   40.4120  -13.9960 C.2       1 9DG        -0.0146
     12 H1         18.5984   40.0636  -15.9325 H         1 9DG         0.0274
     13 H2         17.1108   37.9264  -16.1105 H         1 9DG         0.0886
     14 H3         15.6295   37.7897  -13.9703 H         1 9DG         0.2292
     15 H4         16.0626   41.7145  -10.9449 H         1 9DG         0.2490
     16 H5         18.4737   43.7930  -12.2540 H         1 9DG         0.1877
     17 H6         17.2811   43.5045  -10.9589 H         1 9DG         0.1877
@<TRIPOS>BOND
     1    1    2 2  
     2    1   11 1  
     3    2    3 1  
     4    3    4 1  
     5    4    5 1  
     6    4   11 2  
     7    5    6 2  
     8    5    7 am 
     9    7    8 am 
    10    8    9 1  
    11    8   10 2  
    12   10   11 1  
    13    1   12 1  
    14    2   13 1  
    15    3   14 1  
    16    7   15 1  
    17    9   16 1  
    18    9   17 1  
@<TRIPOS>SUBSTRUCTURE
     1 9DG         1

