### 
### Created by X-TOOL on Mon Sep 10 21:12:48 2018
### 

@<TRIPOS>MOLECULE
1ft4_ligand
   52    56     1     0     0
SMALL
GAST_HUCK


@<TRIPOS>ATOM
      1 C1         15.9110    4.4620   26.2520 C.ar      1 703        -0.0115
      2 C2         16.4940    4.3510   27.5480 C.ar      1 703         0.0106
      3 C3         17.5280    3.4170   27.8080 C.ar      1 703         0.1269
      4 C4         17.9070    2.5220   26.8280 C.ar      1 703         0.0372
      5 C5         17.3630    2.4970   25.5550 C.ar      1 703         0.1125
      6 C6         16.3630    3.5050   25.2490 C.ar      1 703         0.0074
      7 N7         18.4450    3.4530   28.9740 N.2       1 703        -0.2055
      8 O8         19.0430    2.3870   29.2990 O.2       1 703        -0.4873
      9 O9         18.5880    4.5810   29.4900 O.2       1 703        -0.4873
     10 C10        18.0520    1.3430   24.8240 C.2       1 703         0.1825
     11 S11        19.7770    1.3170   24.8020 S.3       1 703         0.0884
     12 C12        20.0020   -0.3130   24.3040 C.2       1 703         0.1778
     13 C13        18.6510   -0.8760   24.1170 C.2       1 703         0.2520
     14 C14        17.5570    0.0550   24.4040 C.2       1 703         0.1291
     15 N15        19.0420   -2.1080   23.6580 N.am      1 703        -0.0592
     16 C16        20.3080   -2.3690   23.5360 C.2       1 703         0.2846
     17 C17        21.0570   -1.2600   23.9610 C.2       1 703         0.0935
     18 C18        18.4240   -3.1990   23.1440 C.2       1 703         0.2702
     19 N19        19.2960   -4.1850   22.6500 N.am      1 703        -0.1512
     20 C20        20.5700   -3.6360   22.9160 C.2       1 703         0.3465
     21 S21        16.6770   -3.3340   23.1530 S.2       1 703        -0.2099
     22 O22        21.7380   -4.1580   22.5560 O.2       1 703        -0.3210
     23 C23        18.9430   -5.4250   21.8940 C.3       1 703         0.0701
     24 C24        20.0630   -6.4630   21.7510 C.3       1 703         0.0138
     25 C25        20.4050   -6.7410   20.2760 C.3       1 703        -0.0294
     26 N26        21.2220   -7.9830   20.1020 N.4       1 703         0.2385
     27 C27        20.4410   -9.1740   19.6480 C.3       1 703        -0.0078
     28 C28        21.2690  -10.4700   19.6500 C.3       1 703         0.0878
     29 O29        22.4730  -10.3220   18.8560 O.3       1 703        -0.3693
     30 C30        23.2550   -9.1800   19.3050 C.3       1 703         0.0878
     31 C31        22.4540   -7.8640   19.2800 C.3       1 703        -0.0078
     32 H1         15.1696    5.2191   26.0237 H         1 703         0.0749
     33 H2         16.1407    4.9915   28.3480 H         1 703         0.1020
     34 H3         18.6754    1.7963   27.0690 H         1 703         0.1028
     35 H4         15.9425    3.5468   24.2508 H         1 703         0.0980
     36 H5         16.5010   -0.1944   24.3117 H         1 703         0.1290
     37 H6         22.1377   -1.1391   24.0191 H         1 703         0.0888
     38 H7         18.6295   -5.1258   20.8830 H         1 703         0.0598
     39 H8         18.1006   -5.9071   22.4115 H         1 703         0.0598
     40 H9         19.7397   -7.4021   22.2239 H         1 703         0.0342
     41 H10        20.9630   -6.0871   22.2597 H         1 703         0.0342
     42 H11        20.9725   -5.8868   19.8782 H         1 703         0.0815
     43 H12        19.4676   -6.8533   19.7115 H         1 703         0.0815
     44 H13        21.5428   -8.2032   21.0319 H         1 703         0.2035
     45 H14        20.0818   -8.9888   18.6249 H         1 703         0.0837
     46 H15        19.5806   -9.3064   20.3204 H         1 703         0.0837
     47 H16        20.6608  -11.2854   19.2315 H         1 703         0.0613
     48 H17        21.5493  -10.7156   20.6849 H         1 703         0.0613
     49 H18        24.1299   -9.0720   18.6470 H         1 703         0.0613
     50 H19        23.5919   -9.3673   20.3352 H         1 703         0.0613
     51 H20        23.0793   -7.0531   19.6819 H         1 703         0.0837
     52 H21        22.1743   -7.6313   18.2419 H         1 703         0.0837
@<TRIPOS>BOND
     1    1    2 ar 
     2    1    6 ar 
     3    2    3 ar 
     4    3    4 ar 
     5    3    7 1  
     6    4    5 ar 
     7    5    6 ar 
     8    5   10 1  
     9    7    8 2  
    10    7    9 2  
    11   10   11 1  
    12   10   14 2  
    13   11   12 1  
    14   12   13 2  
    15   12   17 1  
    16   13   14 1  
    17   13   15 am 
    18   15   16 1  
    19   15   18 am 
    20   16   17 2  
    21   16   20 1  
    22   18   19 am 
    23   18   21 2  
    24   19   20 am 
    25   19   23 1  
    26   20   22 2  
    27   23   24 1  
    28   24   25 1  
    29   25   26 1  
    30   26   27 1  
    31   26   31 1  
    32   27   28 1  
    33   28   29 1  
    34   29   30 1  
    35   30   31 1  
    36    1   32 1  
    37    2   33 1  
    38    4   34 1  
    39    6   35 1  
    40   14   36 1  
    41   17   37 1  
    42   23   38 1  
    43   23   39 1  
    44   24   40 1  
    45   24   41 1  
    46   25   42 1  
    47   25   43 1  
    48   26   44 1  
    49   27   45 1  
    50   27   46 1  
    51   28   47 1  
    52   28   48 1  
    53   30   49 1  
    54   30   50 1  
    55   31   51 1  
    56   31   52 1  
@<TRIPOS>SUBSTRUCTURE
     1 703         1

