### 
### Created by X-TOOL on Mon Sep 10 21:12:47 2018
### 

@<TRIPOS>MOLECULE
1ftj_ligand
   18    17     1     0     0
SMALL
GAST_HUCK


@<TRIPOS>ATOM
      1 N          75.2840   27.3620   43.3700 N.4       1 GLU         0.2328
      2 CA         76.2760   26.2680   43.5890 C.3       1 GLU         0.0298
      3 C          76.4030   25.9260   45.0660 C.2       1 GLU         0.0845
      4 O          77.1870   25.0190   45.3850 O.co2     1 GLU        -0.5643
      5 CB         77.6410   26.6550   43.0160 C.3       1 GLU         0.0139
      6 CG         77.7540   26.5240   41.4850 C.3       1 GLU         0.0069
      7 CD         77.8030   25.0700   41.0230 C.2       1 GLU         0.0351
      8 OE1        77.6260   24.8170   39.8060 O.co2     1 GLU        -0.5690
      9 OE2        78.0180   24.1740   41.8720 O.co2     1 GLU        -0.5690
     10 OXT        75.6950   26.5570   45.8780 O.co2     1 GLU        -0.5643
     11 H1         75.2213   27.5665   42.3849 H         1 GLU         0.2010
     12 H2         75.5796   28.1880   43.8664 H         1 GLU         0.2010
     13 H3         74.3813   27.0702   43.7106 H         1 GLU         0.2010
     14 H4         75.9199   25.3725   43.0587 H         1 GLU         0.1025
     15 H5         78.4018   26.0052   43.4731 H         1 GLU         0.0356
     16 H6         77.8425   27.7020   43.2866 H         1 GLU         0.0356
     17 H7         78.6733   27.0298   41.1549 H         1 GLU         0.0433
     18 H8         76.8819   27.0109   41.0243 H         1 GLU         0.0433
@<TRIPOS>BOND
     1    2    1 1  
     2    2    5 1  
     3    2    3 1  
     4    3    4 ar 
     5    3   10 ar 
     6    5    6 1  
     7    6    7 1  
     8    7    9 ar 
     9    7    8 ar 
    10    1   11 1  
    11    1   12 1  
    12    1   13 1  
    13    2   14 1  
    14    5   15 1  
    15    5   16 1  
    16    6   17 1  
    17    6   18 1  
@<TRIPOS>SUBSTRUCTURE
     1 GLU         1

