### 
### Created by X-TOOL on Mon Sep 10 21:12:47 2018
### 

@<TRIPOS>MOLECULE
1ftk_ligand
   31    31     1     0     0
SMALL
GAST_HUCK


@<TRIPOS>ATOM
      1 N          -8.5750    9.5990    8.3570 N.4       1 KAI         0.2414
      2 CD         -9.7500   10.1070    9.1550 C.3       1 KAI        -0.0283
      3 CD1       -12.3640   11.2250    9.4980 C.3       1 KAI        -0.0622
      4 CD2       -12.3090   12.8460    7.6680 C.3       1 KAI        -0.0622
      5 CA         -8.6910   10.1310    7.0230 C.3       1 KAI         0.0349
      6 CB        -10.0910   10.6490    6.7990 C.3       1 KAI         0.0334
      7 CB1       -11.2300    9.5660    6.5310 C.3       1 KAI         0.0102
      8 CG        -10.3860   11.1850    8.1640 C.3       1 KAI         0.0125
      9 CG1       -11.2260    9.1240    5.0600 C.2       1 KAI         0.0354
     10 CG2       -11.7560   11.7700    8.5180 C.3       1 KAI        -0.0384
     11 C          -7.5940   11.1850    6.7100 C.2       1 KAI         0.0849
     12 O          -6.6660   11.2560    7.5430 O.co2     1 KAI        -0.5642
     13 OD1       -11.9440    8.1440    4.8060 O.co2     1 KAI        -0.5690
     14 OD2       -10.5560    9.7770    4.2320 O.co2     1 KAI        -0.5690
     15 OXT        -7.7520   11.8560    5.6600 O.co2     1 KAI        -0.5642
     16 H1         -8.5894    8.5915    8.3276 H         1 KAI         0.2030
     17 H2         -7.7135    9.9106    8.7775 H         1 KAI         0.2030
     18 H3         -9.4221   10.5738   10.0955 H         1 KAI         0.0817
     19 H4        -10.4623    9.2984    9.3758 H         1 KAI         0.0817
     20 H5        -13.3298   11.7275    9.6555 H         1 KAI         0.0232
     21 H6        -11.7507   11.3164   10.4066 H         1 KAI         0.0232
     22 H7        -12.5359   10.1612    9.2771 H         1 KAI         0.0232
     23 H8        -11.5701   13.1246    6.9022 H         1 KAI         0.0232
     24 H9        -12.5402   13.7229    8.2906 H         1 KAI         0.0232
     25 H10       -13.2280   12.4911    7.1788 H         1 KAI         0.0232
     26 H11        -8.5369    9.2969    6.3227 H         1 KAI         0.1029
     27 H12       -10.1064   11.4162    6.0109 H         1 KAI         0.0397
     28 H13       -12.2092   10.0047    6.7732 H         1 KAI         0.0436
     29 H14       -11.0524    8.6895    7.1715 H         1 KAI         0.0436
     30 H15        -9.7376   12.0691    8.2528 H         1 KAI         0.0362
     31 H16       -11.3100   12.5189    9.1890 H         1 KAI         0.0300
@<TRIPOS>BOND
     1    1    2 1  
     2    1    5 1  
     3    2    8 1  
     4    5    6 1  
     5    5   11 1  
     6    6    7 1  
     7    6    8 1  
     8    7    9 1  
     9    8   10 1  
    10    9   13 ar 
    11    9   14 ar 
    12   11   12 ar 
    13   11   15 ar 
    14   10    4 1  
    15   10    3 1  
    16    1   16 1  
    17    1   17 1  
    18    2   18 1  
    19    2   19 1  
    20    3   20 1  
    21    3   21 1  
    22    3   22 1  
    23    4   23 1  
    24    4   24 1  
    25    4   25 1  
    26    5   26 1  
    27    6   27 1  
    28    7   28 1  
    29    7   29 1  
    30    8   30 1  
    31   10   31 1  
@<TRIPOS>SUBSTRUCTURE
     1 KAI         1

