### 
### Created by X-TOOL on Sun Sep  9 21:50:02 2018
### 

@<TRIPOS>MOLECULE
1ftl_ligand
   22    23     1     0     0
SMALL
GAST_HUCK


@<TRIPOS>ATOM
      1 O1         28.1460    4.0820   43.2830 O.2       1 NON        -0.2819
      2 O2         30.2500    2.6800   42.2920 O.2       1 NON        -0.2819
      3 C1         28.5080    4.2700   42.1470 C.2       1 NON         0.4442
      4 C2         29.6780    3.4740   41.5890 C.2       1 NON         0.4442
      5 N1         27.9300    5.1800   41.3180 N.am      1 NON        -0.1042
      6 N2         30.0380    3.7340   40.3080 N.am      1 NON        -0.1042
      7 C3         28.3280    5.4140   40.0250 C.ar      1 NON         0.3155
      8 C4         29.4080    4.6790   39.4980 C.ar      1 NON         0.3155
      9 C5         27.7720    6.4620   39.3140 C.ar      1 NON         0.1191
     10 C6         29.9230    4.9950   38.2390 C.ar      1 NON         0.1191
     11 C7         28.2870    6.7720   38.0720 C.ar      1 NON         0.2405
     12 C8         29.3550    6.0440   37.5350 C.ar      1 NON         0.2405
     13 N3         27.7040    7.9150   37.3560 N.2       1 NON         0.0819
     14 N4         29.8760    6.3300   36.1880 N.2       1 NON         0.0819
     15 O3         27.1400    8.7660   38.0170 O.2       1 NON        -0.1324
     16 O4         29.8640    5.3850   35.4070 O.2       1 NON        -0.1324
     17 O5         27.7520    7.8850   36.1400 O.2       1 NON        -0.1324
     18 O6         30.2580    7.4810   35.9150 O.2       1 NON        -0.1324
     19 H1         27.1636    5.7146   41.6741 H         1 NON         0.3545
     20 H2         30.8013    3.2171   39.9204 H         1 NON         0.3545
     21 H3         26.9456    7.0302   39.7255 H         1 NON         0.0952
     22 H4         30.7496    4.4314   37.8216 H         1 NON         0.0952
@<TRIPOS>BOND
     1    1    3 2  
     2    3    4 1  
     3    3    5 am 
     4    4    6 am 
     5    5    7 1  
     6    6    8 1  
     7    7    8 ar 
     8    7    9 ar 
     9    8   10 ar 
    10    9   11 ar 
    11   10   12 ar 
    12   11   12 ar 
    13   11   13 1  
    14   12   14 1  
    15   13   15 2  
    16   13   17 2  
    17   14   16 2  
    18   14   18 2  
    19    4    2 2  
    20    5   19 1  
    21    6   20 1  
    22    9   21 1  
    23   10   22 1  
@<TRIPOS>SUBSTRUCTURE
     1 NON         1

