### 
### Created by X-TOOL on Mon Sep 10 21:12:49 2018
### 

@<TRIPOS>MOLECULE
1fv0_ligand
   36    39     1     0     0
SMALL
GAST_HUCK


@<TRIPOS>ATOM
      1 C1         15.5110   22.9080   40.4330 C.ar      1 9AR         0.0864
      2 C2         14.1180   22.8870   40.2100 C.ar      1 9AR         0.0646
      3 C3         13.2010   22.9020   41.2540 C.ar      1 9AR         0.2384
      4 C4         13.6190   22.9400   42.6060 C.ar      1 9AR         0.2310
      5 C5         15.0560   22.9660   42.9560 C.ar      1 9AR         0.0969
      6 C6         16.0310   22.9540   41.8090 C.ar      1 9AR         0.1161
      7 C7         15.5570   22.9990   44.3250 C.ar      1 9AR         0.0450
      8 C8         17.0210   23.0050   44.5500 C.ar      1 9AR         0.1312
      9 C9         17.8960   22.9940   43.4400 C.ar      1 9AR         0.0875
     10 C10        17.4450   22.9840   42.1020 C.ar      1 9AR         0.1968
     11 C11        14.7200   23.0160   45.4980 C.ar      1 9AR        -0.0196
     12 C12        15.2500   23.0370   46.7900 C.ar      1 9AR         0.0189
     13 C13        16.6320   23.0370   46.9950 C.ar      1 9AR         0.2003
     14 C14        17.5620   23.0200   45.8850 C.ar      1 9AR         0.2408
     15 C15        11.3760   22.9040   42.4750 C.3       1 9AR         0.2276
     16 C16        16.3290   23.0260   39.1400 C.2       1 9AR         0.0980
     17 C17        20.1900   21.9140   46.0480 C.3       1 9AR         0.0859
     18 O1         18.8630   22.5860   46.0210 O.3       1 9AR        -0.2506
     19 O2         11.8510   22.8780   41.1170 O.3       1 9AR        -0.2140
     20 O3         12.4940   22.9420   43.3850 O.3       1 9AR        -0.2368
     21 O4         17.2480   22.2820   38.8000 O.co2     1 9AR        -0.5495
     22 O5         15.8920   23.4950   38.0950 O.co2     1 9AR        -0.5495
     23 O6         17.0970   23.0530   48.3350 O.3       1 9AR        -0.3123
     24 O7         18.7170   23.9890   40.2160 O.2       1 9AR        -0.4653
     25 O8         19.5990   23.1920   41.9230 O.2       1 9AR        -0.4653
     26 N1         18.7030   23.3900   41.0990 N.2       1 9AR        -0.1583
     27 H1         13.7509   22.8582   39.1905 H         1 9AR         0.0826
     28 H2         18.9642   22.9932   43.6247 H         1 9AR         0.1462
     29 H3         13.6432   23.0124   45.3734 H         1 9AR         0.0850
     30 H4         14.5816   23.0535   47.6433 H         1 9AR         0.0817
     31 H5         10.7521   23.7972   42.6261 H         1 9AR         0.1072
     32 H6         10.7778   22.0016   42.6695 H         1 9AR         0.1072
     33 H7         20.9185   22.5614   46.5580 H         1 9AR         0.0639
     34 H8         20.5260   21.7244   45.0179 H         1 9AR         0.0639
     35 H9         20.1067   20.9594   46.5882 H         1 9AR         0.0639
     36 H10        18.0470   23.0513   48.3394 H         1 9AR         0.2545
@<TRIPOS>BOND
     1    1   16 1  
     2    1    6 ar 
     3    1    2 ar 
     4    2    3 ar 
     5    3   19 1  
     6    3    4 ar 
     7    4   20 1  
     8    4    5 ar 
     9    5    7 ar 
    10    5    6 ar 
    11    6   10 ar 
    12   10   26 1  
    13   10    9 ar 
    14    9    8 ar 
    15    8   14 ar 
    16    7    8 ar 
    17    7   11 ar 
    18   11   12 ar 
    19   12   13 ar 
    20   13   23 1  
    21   14   13 ar 
    22   14   18 1  
    23   18   17 1  
    24   26   24 2  
    25   26   25 2  
    26   20   15 1  
    27   15   19 1  
    28   16   22 ar 
    29   16   21 ar 
    30    2   27 1  
    31    9   28 1  
    32   11   29 1  
    33   12   30 1  
    34   15   31 1  
    35   15   32 1  
    36   17   33 1  
    37   17   34 1  
    38   17   35 1  
    39   23   36 1  
@<TRIPOS>SUBSTRUCTURE
     1 9AR         1

