### 
### Created by X-TOOL on Mon Sep 10 21:12:48 2018
### 

@<TRIPOS>MOLECULE
1fv9_ligand
   18    19     1     0     0
SMALL
GAST_HUCK


@<TRIPOS>ATOM
      1 C1         21.0210   16.0610   33.5870 C.ar      1 172         0.0711
      2 C2         21.0130   17.3660   34.0060 C.ar      1 172        -0.0176
      3 C3         19.8440   18.0310   33.9110 C.ar      1 172         0.0663
      4 C4         18.7770   17.5240   33.4730 C.ar      1 172         0.0016
      5 C5         18.6710   16.2560   33.0310 C.ar      1 172        -0.0751
      6 C6         19.8380   15.4740   33.0780 C.ar      1 172        -0.0502
      7 N10        19.7560   19.3420   34.2640 N.pl3     1 172        -0.2343
      8 C11        18.4010   19.5750   33.9580 C.2       1 172         0.2065
      9 N12        17.7440   18.4180   33.4490 N.2       1 172        -0.3213
     10 N14        17.7880   20.7780   34.1480 N.pl3     1 172        -0.2905
     11 O17        22.1710   15.3420   33.6520 O.3       1 172        -0.3413
     12 H1         21.9056   17.8416   34.3959 H         1 172         0.0442
     13 H2         17.7337   15.8590   32.6582 H         1 172         0.0500
     14 H3         19.8321   14.4464   32.7328 H         1 172         0.0454
     15 H4         20.4713   19.9783   34.6440 H         1 172         0.2299
     16 H5         16.7933   20.8930   33.9066 H         1 172         0.1851
     17 H6         18.3196   21.5718   34.5329 H         1 172         0.1851
     18 H7         22.8617   15.8836   34.0155 H         1 172         0.2450
@<TRIPOS>BOND
     1    1    2 ar 
     2    1    6 ar 
     3    1   11 1  
     4    2    3 ar 
     5    3    4 ar 
     6    3    7 1  
     7    4    5 ar 
     8    4    9 1  
     9    5    6 ar 
    10    7    8 1  
    11    8    9 2  
    12    8   10 1  
    13    2   12 1  
    14    5   13 1  
    15    6   14 1  
    16    7   15 1  
    17   10   16 1  
    18   10   17 1  
    19   11   18 1  
@<TRIPOS>SUBSTRUCTURE
     1 172         1

