### 
### Created by X-TOOL on Mon Sep 10 21:12:48 2018
### 

@<TRIPOS>MOLECULE
1fvt_ligand
   34    36     1     0     0
SMALL
GAST_HUCK


@<TRIPOS>ATOM
      1 N1         40.5760    9.9930  -15.5280 N.am      1 106        -0.2316
      2 C2         39.7040   10.4960  -14.6080 C.2       1 106         0.2459
      3 C3         39.9520    9.8500  -13.2980 C.2       1 106         0.1493
      4 C4         41.7880    8.1020  -12.6060 C.ar      1 106        -0.0582
      5 C5         42.9280    7.3320  -13.1730 C.ar      1 106        -0.0039
      6 C6         43.3110    7.4350  -14.6070 C.ar      1 106        -0.0672
      7 C7         42.5190    8.3170  -15.4840 C.ar      1 106        -0.0392
      8 C8         41.4110    9.1160  -14.9240 C.ar      1 106         0.0766
      9 C9         41.0630    8.9960  -13.5240 C.ar      1 106         0.0275
     10 O11        38.8350   11.3520  -14.7510 O.2       1 106        -0.3711
     11 N12        39.2210   10.0950  -12.0670 N.2       1 106        -0.1650
     12 BR4        43.8710    6.1500  -12.0940 Br        1 106        -0.0638
     13 N17        38.0050   10.3380  -12.0420 N.pl3     1 106        -0.2037
     14 C19        37.2090   10.3250  -10.9450 C.ar      1 106         0.0799
     15 C20        36.1770   11.3750  -10.8960 C.ar      1 106        -0.0343
     16 C21        35.1980   11.3790   -9.8020 C.ar      1 106        -0.0445
     17 C22        35.2720   10.3560   -8.7280 C.ar      1 106         0.0965
     18 C23        36.3170    9.3020   -8.7600 C.ar      1 106        -0.0445
     19 C24        37.2810    9.2890   -9.8570 C.ar      1 106        -0.0343
     20 S27        33.8490   10.2290   -7.6860 S.o2      1 106         0.0609
     21 O28        32.7720    9.8000   -8.5350 O.2       1 106        -0.1519
     22 O29        33.7460   11.5170   -7.0650 O.2       1 106        -0.1519
     23 N30        34.0410    9.1420   -6.4690 N.am      1 106        -0.2621
     24 H1         40.5954   10.2347  -16.4982 H         1 106         0.2264
     25 H2         41.5041    8.0089  -11.5640 H         1 106         0.0599
     26 H3         44.1526    6.8747  -14.9979 H         1 106         0.0592
     27 H4         42.7506    8.3788  -16.5412 H         1 106         0.0506
     28 H5         37.5577   10.5718  -12.9399 H         1 106         0.2381
     29 H6         36.1407   12.1401  -11.6631 H         1 106         0.0541
     30 H7         34.4181   12.1315   -9.7781 H         1 106         0.0607
     31 H8         36.3639    8.5516   -7.9791 H         1 106         0.0607
     32 H9         38.0528    8.5284   -9.8873 H         1 106         0.0541
     33 H10        33.2997    8.9863   -5.8161 H         1 106         0.1633
     34 H11        34.8991    8.6361   -6.3812 H         1 106         0.1633
@<TRIPOS>BOND
     1    1    8 1  
     2    1    2 am 
     3    2   10 2  
     4    2    3 1  
     5    3   11 2  
     6    3    9 1  
     7    9    8 ar 
     8    9    4 ar 
     9    4    5 ar 
    10    5   12 1  
    11    5    6 ar 
    12    6    7 ar 
    13    7    8 ar 
    14   11   13 1  
    15   13   14 1  
    16   14   19 ar 
    17   14   15 ar 
    18   15   16 ar 
    19   16   17 ar 
    20   17   20 1  
    21   17   18 ar 
    22   18   19 ar 
    23   20   23 am 
    24   20   22 2  
    25   20   21 2  
    26    1   24 1  
    27    4   25 1  
    28    6   26 1  
    29    7   27 1  
    30   13   28 1  
    31   15   29 1  
    32   16   30 1  
    33   18   31 1  
    34   19   32 1  
    35   23   33 1  
    36   23   34 1  
@<TRIPOS>SUBSTRUCTURE
     1 106         1

