### 
### Created by X-TOOL on Mon Sep 10 21:12:48 2018
### 

@<TRIPOS>MOLECULE
1fvv_ligand
   46    50     1     0     0
SMALL
GAST_HUCK


@<TRIPOS>ATOM
      1 O1        -11.2220  207.9760  109.2120 O.2       1 107        -0.2894
      2 C2        -12.1710  207.5020  109.8420 C.2       1 107         0.2426
      3 N3        -13.3600  207.1380  109.3200 N.2       1 107        -0.3257
      4 C4        -14.2170  206.7500  110.3000 C.2       1 107         0.0057
      5 C5        -15.6380  206.3600  110.1900 C.2       1 107        -0.0493
      6 C6        -16.3860  205.9670  111.3900 C.2       1 107        -0.0475
      7 C7        -15.7410  206.0270  112.6900 C.2       1 107         0.0427
      8 N8        -16.2320  205.7140  113.9500 N.2       1 107        -0.3016
      9 C9        -15.3040  205.8370  114.9320 C.2       1 107         0.0774
     10 S10       -13.8140  206.4530  114.4280 S.3       1 107         0.0090
     11 C11       -14.2920  206.4680  112.8160 C.2       1 107         0.0781
     12 C12       -13.5570  206.8060  111.5860 C.2       1 107         0.0600
     13 C13       -12.2030  207.2550  111.3270 C.2       1 107         0.1047
     14 C14       -11.1760  207.4750  112.1700 C.3       1 107         0.0974
     15 N15       -10.1070  208.4390  111.7920 N.pl3     1 107        -0.2988
     16 C16        -9.0990  208.8850  112.5560 C.ar      1 107         0.0416
     17 C17        -9.2420  209.2080  114.0130 C.ar      1 107        -0.0424
     18 C18        -8.0670  209.5940  114.7840 C.ar      1 107        -0.0465
     19 C19        -6.7650  209.7680  114.0980 C.ar      1 107         0.1013
     20 C20        -6.6070  209.4480  112.6660 C.ar      1 107        -0.0465
     21 C21        -7.7830  209.0220  111.8860 C.ar      1 107        -0.0424
     22 S22        -5.4220  210.3800  115.0540 S.o2      1 107         0.0867
     23 O23        -4.2100  210.2890  114.2980 O.2       1 107        -0.1456
     24 O24        -5.8540  211.6490  115.5540 O.2       1 107        -0.1456
     25 N25        -5.2170  209.3650  116.3500 N.am      1 107        -0.1707
     26 C27        -3.5620  206.0480  115.3440 C.ar      1 107        -0.0586
     27 C28        -3.8620  205.2520  116.5560 C.ar      1 107        -0.0524
     28 C29        -4.7090  205.8750  117.5970 C.ar      1 107        -0.0099
     29 N30        -5.1930  207.2180  117.4430 N.ar      1 107        -0.2899
     30 C31        -4.8230  208.0270  116.3130 C.ar      1 107         0.1336
     31 C32        -4.0220  207.4320  115.1920 C.ar      1 107        -0.0176
     32 H1        -16.1302  206.3642  109.2186 H         1 107         0.0483
     33 H2        -17.4189  205.6323  111.3062 H         1 107         0.0741
     34 H3        -15.5043  205.5599  115.9659 H         1 107         0.1178
     35 H4        -10.6861  206.5043  112.3366 H         1 107         0.0866
     36 H5        -11.6098  207.8338  113.1150 H         1 107         0.0866
     37 H6        -10.1459  208.8069  110.8307 H         1 107         0.1810
     38 H7        -10.2138  209.1548  114.4903 H         1 107         0.0515
     39 H8         -8.1450  209.7530  115.8534 H         1 107         0.0602
     40 H9         -5.6351  209.5255  112.1922 H         1 107         0.0602
     41 H10        -7.6864  208.8098  110.8274 H         1 107         0.0515
     42 H11        -5.3947  209.7535  117.2542 H         1 107         0.2227
     43 H12        -2.9855  205.5944  114.5459 H         1 107         0.0685
     44 H13        -3.4742  204.2469  116.6765 H         1 107         0.0562
     45 H14        -4.9671  205.3111  118.4861 H         1 107         0.0768
     46 H15        -3.7916  208.0052  114.3013 H         1 107         0.0577
@<TRIPOS>BOND
     1    2    1 2  
     2    2    3 1  
     3   13    2 1  
     4    4    3 2  
     5    4    5 1  
     6   12    4 1  
     7    5    6 2  
     8    7    6 1  
     9    7    8 1  
    10   11    7 2  
    11    9    8 2  
    12   10    9 1  
    13   11   10 1  
    14   12   11 1  
    15   13   12 2  
    16   14   13 1  
    17   15   14 1  
    18   16   15 1  
    19   17   16 ar 
    20   21   16 ar 
    21   18   17 ar 
    22   19   18 ar 
    23   19   20 ar 
    24   22   19 1  
    25   20   21 ar 
    26   22   23 2  
    27   22   24 2  
    28   25   22 am 
    29   30   25 1  
    30   27   26 ar 
    31   26   31 ar 
    32   28   27 ar 
    33   29   28 ar 
    34   29   30 ar 
    35   30   31 ar 
    36    5   32 1  
    37    6   33 1  
    38    9   34 1  
    39   14   35 1  
    40   14   36 1  
    41   15   37 1  
    42   17   38 1  
    43   18   39 1  
    44   20   40 1  
    45   21   41 1  
    46   25   42 1  
    47   26   43 1  
    48   27   44 1  
    49   28   45 1  
    50   31   46 1  
@<TRIPOS>SUBSTRUCTURE
     1 107         1

