### 
### Created by X-TOOL on Mon Sep 10 21:12:48 2018
### 

@<TRIPOS>MOLECULE
1fw0_ligand
   29    29     1     0     0
SMALL
GAST_HUCK


@<TRIPOS>ATOM
      1 N          14.3510   -1.8980   16.0370 N.4       1 KAI         0.2433
      2 CD         15.6050   -1.2130   15.5700 C.3       1 KAI        -0.0169
      3 CD1        18.2910   -1.0880   14.4340 C.2       1 KAI        -0.1288
      4 CD2        19.1920   -3.1290   15.5420 C.3       1 KAI        -0.0295
      5 CA         14.6010   -3.3280   16.0990 C.3       1 KAI         0.0373
      6 CB         15.9500   -3.6860   15.4710 C.3       1 KAI         0.0449
      7 CB1        16.0730   -3.9080   13.8710 C.3       1 KAI         0.0124
      8 CG         16.6900   -2.3860   15.7120 C.3       1 KAI         0.0446
      9 CG1        15.7190   -5.3410   13.4220 C.2       1 KAI         0.0356
     10 CG2        18.1350   -2.1320   15.1890 C.2       1 KAI        -0.0678
     11 C          14.5070   -3.8180   17.5860 C.2       1 KAI         0.0851
     12 O          14.1850   -2.9580   18.4350 O.co2     1 KAI        -0.5642
     13 OD1        15.3840   -5.4570   12.2380 O.co2     1 KAI        -0.5690
     14 OD2        15.8400   -6.2770   14.2380 O.co2     1 KAI        -0.5690
     15 OXT        14.7720   -5.0250   17.8170 O.co2     1 KAI        -0.5642
     16 H1         13.6010   -1.7120   15.3898 H         1 KAI         0.2032
     17 H2         14.0981   -1.5574   16.9513 H         1 KAI         0.2032
     18 H3         15.8558   -0.3553   16.2114 H         1 KAI         0.0845
     19 H4         15.5131   -0.8763   14.5269 H         1 KAI         0.0845
     20 H5         19.2745   -0.8486   14.0323 H         1 KAI         0.0075
     21 H6         17.4384   -0.4514   14.2022 H         1 KAI         0.0075
     22 H7         20.1517   -2.8161   15.1050 H         1 KAI         0.0425
     23 H8         18.9126   -4.1159   15.1446 H         1 KAI         0.0425
     24 H9         19.2894   -3.1884   16.6361 H         1 KAI         0.0425
     25 H10        13.8161   -3.8381   15.5213 H         1 KAI         0.1031
     26 H11        16.3919   -4.5480   15.9922 H         1 KAI         0.0424
     27 H12        17.1084   -3.6935   13.5678 H         1 KAI         0.0438
     28 H13        15.3909   -3.2066   13.3682 H         1 KAI         0.0438
     29 H14        16.8805   -2.4213   16.7948 H         1 KAI         0.0554
@<TRIPOS>BOND
     1    2    1 1  
     2    5    1 1  
     3    8    2 1  
     4   10    3 2  
     5   10    4 1  
     6    6    5 1  
     7    5   11 1  
     8    6    7 1  
     9    8    6 1  
    10    7    9 1  
    11    8   10 1  
    12    9   13 ar 
    13    9   14 ar 
    14   11   12 ar 
    15   11   15 ar 
    16    1   16 1  
    17    1   17 1  
    18    2   18 1  
    19    2   19 1  
    20    3   20 1  
    21    3   21 1  
    22    4   22 1  
    23    4   23 1  
    24    4   24 1  
    25    5   25 1  
    26    6   26 1  
    27    7   27 1  
    28    7   28 1  
    29    8   29 1  
@<TRIPOS>SUBSTRUCTURE
     1 KAI         1

