### 
### Created by X-TOOL on Fri Nov 18 12:10:00 2016
### 

@<TRIPOS>MOLECULE
1fwe_ligand
   10     9     1     0     0
SMALL
GAST_HUCK


@<TRIPOS>ATOM
      1 C1         70.7460  108.0780   71.6150 C.3       1 HAE         0.0273
      2 C2         69.3800  107.4350   71.5780 C.2       1 HAE         0.1957
      3 O2         68.6350  107.6130   70.6140 O.2       1 HAE        -0.3973
      4 N          69.0620  106.6910   72.6110 N.am      1 HAE        -0.1645
      5 O          67.8240  106.1210   72.8270 O.3       1 HAE        -0.2717
      6 H          71.2559  107.8021   72.5498 H         1 HAE         0.0466
      7 H          70.6380  109.1715   71.5652 H         1 HAE         0.0466
      8 H          71.3391  107.7287   70.7570 H         1 HAE         0.0466
      9 H          69.7721  106.5241   73.2950 H         1 HAE         0.2216
     10 H          67.8403  105.6298   73.6400 H         1 HAE         0.2490
@<TRIPOS>BOND
     1    1    2 1  
     2    2    3 2  
     3    2    4 am 
     4    4    5 1  
     5    1    6 1  
     6    1    7 1  
     7    1    8 1  
     8    4    9 1  
     9    5   10 1  
@<TRIPOS>SUBSTRUCTURE
     1 HAE         1

