### 
### Created by X-TOOL on Mon Sep 10 21:12:48 2018
### 

@<TRIPOS>MOLECULE
1fwu_ligand
   74    76     1     0     0
SMALL
GAST_HUCK


@<TRIPOS>ATOM
      1 C1          0.0740    6.0250   10.0480 C.3       1 SGA         0.1885
      2 C2         -0.0700    7.5190    9.8370 C.3       1 SGA         0.1366
      3 C3          0.7640    8.2970   10.8820 C.3       1 SGA         0.1433
      4 C4          0.2420    7.9120   12.2990 C.3       1 SGA         0.1144
      5 C5          0.4020    6.3540   12.4730 C.3       1 SGA         0.1131
      6 C6         -0.1070    5.8080   13.8320 C.3       1 SGA         0.0730
      7 O1         -0.7060    5.2910    9.0700 O.3       1 SGA        -0.3401
      8 O2          0.3700    7.8340    8.5160 O.3       1 SGA        -0.3840
      9 O3          0.6210    9.7100   10.6740 O.3       1 SGA        -0.2570
     10 O4         -1.1390    8.2480   12.4380 O.3       1 SGA        -0.3864
     11 O5         -0.3500    5.6240   11.4090 O.3       1 SGA        -0.3405
     12 O6         -0.0460    4.3840   13.8350 O.3       1 SGA        -0.3924
     13 S           1.8070   10.6300   10.9440 S.o2      1 SGA        -0.0733
     14 O1S         2.9600   10.2560   10.0910 O.co2     1 SGA        -0.4611
     15 O2S         1.4220   12.0140   10.6430 O.co2     1 SGA        -0.4611
     16 O3S         2.1870   10.5720   12.3450 O.co2     1 SGA        -0.4611
     17 C1         -1.3110    1.4150    7.4750 C.3       1 MAG         0.1823
     18 C2         -1.8380    1.8570    8.8690 C.3       1 MAG         0.1211
     19 C3         -1.8480    3.4050    8.9600 C.3       1 MAG         0.1179
     20 C4         -0.3550    3.8850    8.7740 C.3       1 MAG         0.1185
     21 C5          0.1320    3.4030    7.3480 C.3       1 MAG         0.1134
     22 C6          1.5780    3.7970    7.0740 C.3       1 MAG         0.0730
     23 C7         -3.1530    0.2000    8.3020 C.2       1 MAG         0.1733
     24 C8         -3.9690    0.2460    7.0460 C.3       1 MAG         0.0257
     25 N2         -3.1860    1.3250    9.0670 N.am      1 MAG        -0.2766
     26 O1         -1.2810    0.0650    7.3590 O.3       1 MAG        -0.3651
     27 O5          0.0510    1.9570    7.2490 O.3       1 MAG        -0.3409
     28 O6          2.0250    3.3630    5.7800 O.3       1 MAG        -0.3924
     29 O7         -2.4950   -0.8420    8.5840 O.2       1 MAG        -0.3974
     30 C1         -3.9390    3.7160   10.2190 C.3       1 FUC         0.1883
     31 C2         -4.5110    3.4570   11.6430 C.3       1 FUC         0.1341
     32 C3         -3.9210    4.4810   12.6440 C.3       1 FUC         0.1140
     33 C4         -4.2970    5.9140   12.1830 C.3       1 FUC         0.1095
     34 C5         -3.7250    6.1820   10.8070 C.3       1 FUC         0.0873
     35 C6         -4.0380    7.5390   10.2300 C.3       1 FUC        -0.0361
     36 O1         -2.5320    3.4010   10.2320 O.3       1 FUC        -0.3403
     37 O2         -4.2270    2.0940   11.9950 O.3       1 FUC        -0.3841
     38 O3         -4.4700    4.2280   13.9340 O.3       1 FUC        -0.3864
     39 O4         -5.7450    6.0430   12.1570 O.3       1 FUC        -0.3866
     40 O5         -4.1780    5.1260    9.8270 O.3       1 FUC        -0.3431
     41 H1          1.1344    5.7614    9.9215 H         1 SGA         0.0938
     42 H2         -1.1279    7.8005    9.9446 H         1 SGA         0.0672
     43 H3          1.8248    8.0212   10.7896 H         1 SGA         0.0674
     44 H4          0.8283    8.4399   13.0655 H         1 SGA         0.0648
     45 H5          1.4726    6.1177   12.3837 H         1 SGA         0.0647
     46 H6         -1.1475    6.1290   13.9876 H         1 SGA         0.0584
     47 H7          0.5234    6.2019   14.6428 H         1 SGA         0.0584
     48 H8          1.2795    7.5781    8.4169 H         1 SGA         0.2101
     49 H9         -1.4368    8.0056   13.3069 H         1 SGA         0.2100
     50 H10        -0.5910    4.0433   13.1355 H         1 SGA         0.2095
     51 H11        -1.9858    1.8176    6.7052 H         1 SGA         0.0932
     52 H12        -1.1750    1.4569    9.6503 H         1 SGA         0.0633
     53 H13        -2.4628    3.8994    8.1934 H         1 SGA         0.0649
     54 H14         0.3444    3.4899    9.5254 H         1 SGA         0.0651
     55 H15        -0.5160    3.8591    6.5851 H         1 SGA         0.0647
     56 H16         2.2205    3.3409    7.8415 H         1 SGA         0.0584
     57 H17         1.6627    4.8924    7.1285 H         1 SGA         0.0584
     58 H18        -3.8698   -0.7090    6.5091 H         1 SGA         0.0467
     59 H19        -3.6107    1.0655    6.4057 H         1 SGA         0.0467
     60 H20        -5.0255    0.4151    7.3011 H         1 SGA         0.0467
     61 H21        -3.9348    1.6915    9.6192 H         1 SGA         0.1857
     62 H22        -2.1528   -0.2836    7.5035 H         1 SGA         0.2126
     63 H23         1.9618    2.4167    5.7253 H         1 SGA         0.2095
     64 H24        -4.4466    3.0588    9.4976 H         1 SGA         0.0938
     65 H25        -5.6026    3.5907   11.6220 H         1 SGA         0.0671
     66 H26        -2.8263    4.3798   12.6806 H         1 SGA         0.0648
     67 H27        -3.8812    6.6440   12.8930 H         1 SGA         0.0646
     68 H28        -2.6311    6.1143   10.9002 H         1 SGA         0.0621
     69 H29        -3.5782    7.6292    9.2348 H         1 SGA         0.0255
     70 H30        -3.6361    8.3204   10.8917 H         1 SGA         0.0255
     71 H31        -5.1281    7.6577   10.1424 H         1 SGA         0.0255
     72 H32        -3.2871    1.9557   11.9885 H         1 SGA         0.2101
     73 H33        -5.4150    4.3189   13.8982 H         1 SGA         0.2100
     74 H34        -6.0915    5.8863   13.0276 H         1 SGA         0.2100
@<TRIPOS>BOND
     1    1   11 1  
     2    7    1 1  
     3    1    2 1  
     4    2    8 1  
     5    2    3 1  
     6    3    9 1  
     7    3    4 1  
     8    4   10 1  
     9    5    4 1  
    10   11    5 1  
    11    5    6 1  
    12    6   12 1  
    13    9   13 1  
    14   13   16 ar 
    15   13   15 ar 
    16   13   14 ar 
    17   17   27 1  
    18   17   26 1  
    19   18   17 1  
    20   18   25 1  
    21   19   18 1  
    22   19   20 1  
    23   20   21 1  
    24   21   27 1  
    25   21   22 1  
    26   22   28 1  
    27   25   23 am 
    28   23   29 2  
    29   23   24 1  
    30   30   40 1  
    31   36   30 1  
    32   30   31 1  
    33   31   37 1  
    34   31   32 1  
    35   32   38 1  
    36   32   33 1  
    37   33   39 1  
    38   34   33 1  
    39   40   34 1  
    40   34   35 1  
    41   20    7 1  
    42   36   19 1  
    43    1   41 1  
    44    2   42 1  
    45    3   43 1  
    46    4   44 1  
    47    5   45 1  
    48    6   46 1  
    49    6   47 1  
    50    8   48 1  
    51   10   49 1  
    52   12   50 1  
    53   17   51 1  
    54   18   52 1  
    55   19   53 1  
    56   20   54 1  
    57   21   55 1  
    58   22   56 1  
    59   22   57 1  
    60   24   58 1  
    61   24   59 1  
    62   24   60 1  
    63   25   61 1  
    64   26   62 1  
    65   28   63 1  
    66   30   64 1  
    67   31   65 1  
    68   32   66 1  
    69   33   67 1  
    70   34   68 1  
    71   35   69 1  
    72   35   70 1  
    73   35   71 1  
    74   37   72 1  
    75   38   73 1  
    76   39   74 1  
@<TRIPOS>SUBSTRUCTURE
     1 SGA         1

