### 
### Created by X-TOOL on Mon Sep 10 21:12:48 2018
### 

@<TRIPOS>MOLECULE
1fwv_ligand
   74    76     1     0     0
SMALL
GAST_HUCK


@<TRIPOS>ATOM
      1 C1         -0.8320    6.5040   10.2130 C.3       1 SGA         0.1885
      2 C2         -0.7520    8.0050    9.9990 C.3       1 SGA         0.1366
      3 C3          0.2330    8.6370   10.9840 C.3       1 SGA         0.1433
      4 C4         -0.2420    8.3060   12.4150 C.3       1 SGA         0.1144
      5 C5         -0.3140    6.7670   12.5720 C.3       1 SGA         0.1131
      6 C6         -0.8260    6.2880   13.9470 C.3       1 SGA         0.0730
      7 O1         -1.8060    5.9140    9.3310 O.3       1 SGA        -0.3403
      8 O2         -0.3400    8.2850    8.6440 O.3       1 SGA        -0.3840
      9 O3          0.3010   10.0500   10.8040 O.3       1 SGA        -0.2570
     10 O4         -1.5400    8.8430   12.6340 O.3       1 SGA        -0.3864
     11 O5         -1.2240    6.1750   11.5830 O.3       1 SGA        -0.3405
     12 O6          0.0120    6.8160   14.9990 O.3       1 SGA        -0.3924
     13 S           1.5960   10.7420   11.1330 S.o2      1 SGA        -0.0733
     14 O1S         2.7460   10.0460   10.4870 O.co2     1 SGA        -0.4611
     15 O2S         1.5640   12.1270   10.6300 O.co2     1 SGA        -0.4611
     16 O3S         1.8010   10.7780   12.5840 O.co2     1 SGA        -0.4611
     17 C1         -1.3970    2.4970    7.7660 C.3       1 MAG         0.1823
     18 C2         -1.3760    4.0320    7.8480 C.3       1 MAG         0.1211
     19 C3         -1.8300    4.5070    9.2300 C.3       1 MAG         0.1179
     20 C4         -3.2860    3.9820    9.4410 C.3       1 MAG         0.1185
     21 C5         -3.2600    2.4230    9.3270 C.3       1 MAG         0.1134
     22 C6         -4.6350    1.8040    9.4690 C.3       1 MAG         0.0730
     23 C7          0.2110    5.3750    6.5710 C.2       1 MAG         0.1733
     24 C8          1.6370    5.7390    6.3820 C.3       1 MAG         0.0257
     25 N2         -0.0320    4.4960    7.5530 N.am      1 MAG        -0.2766
     26 O1         -1.0150    2.0500    6.5440 O.3       1 MAG        -0.3651
     27 O5         -2.7440    2.0110    8.0580 O.3       1 MAG        -0.3409
     28 O6         -4.5760    0.3730    9.3510 O.3       1 MAG        -0.3924
     29 O7         -0.6800    5.8810    5.8260 O.2       1 MAG        -0.3974
     30 C1         -5.1140    4.9920   10.7810 C.3       1 FUC         0.1883
     31 C2         -5.5030    5.1670   12.2620 C.3       1 FUC         0.1341
     32 C3         -4.6690    6.2790   12.9120 C.3       1 FUC         0.1140
     33 C4         -4.8630    7.5910   12.1270 C.3       1 FUC         0.1095
     34 C5         -4.4720    7.4110   10.6880 C.3       1 FUC         0.0873
     35 C6         -4.6550    8.6200    9.8100 C.3       1 FUC        -0.0361
     36 O1         -3.7930    4.4090   10.7560 O.3       1 FUC        -0.3401
     37 O2         -5.3860    3.9090   12.9320 O.3       1 FUC        -0.3841
     38 O3         -5.1330    6.4550   14.2480 O.3       1 FUC        -0.3864
     39 O4         -6.2500    8.0070   12.2250 O.3       1 FUC        -0.3866
     40 O5         -5.1940    6.2720   10.0690 O.3       1 FUC        -0.3431
     41 H1          0.1569    6.0689   10.0064 H         1 SGA         0.0938
     42 H2         -1.7482    8.4404   10.1662 H         1 SGA         0.0672
     43 H3          1.2334    8.2092   10.8220 H         1 SGA         0.0674
     44 H4          0.4632    8.7268   13.1469 H         1 SGA         0.0648
     45 H5          0.7000    6.3698   12.4168 H         1 SGA         0.0647
     46 H6         -0.8037    5.1888   13.9810 H         1 SGA         0.0584
     47 H7         -1.8583    6.6386   14.0934 H         1 SGA         0.0584
     48 H8          0.5139    7.8991    8.4877 H         1 SGA         0.2101
     49 H9         -1.8231    8.6342   13.5165 H         1 SGA         0.2100
     50 H10        -0.0075    7.7654   14.9715 H         1 SGA         0.2095
     51 H11        -0.7007    2.0977    8.5181 H         1 SGA         0.0932
     52 H12        -2.0666    4.4394    7.0950 H         1 SGA         0.0633
     53 H13        -1.1666    4.0838    9.9986 H         1 SGA         0.0649
     54 H14        -3.9404    4.3921    8.6577 H         1 SGA         0.0651
     55 H15        -2.6109    2.0333   10.1250 H         1 SGA         0.0647
     56 H16        -5.2908    2.2021    8.6807 H         1 SGA         0.0584
     57 H17        -5.0462    2.0659   10.4550 H         1 SGA         0.0584
     58 H18         1.7248    6.4611    5.5569 H         1 SGA         0.0467
     59 H19         2.2173    4.8359    6.1421 H         1 SGA         0.0467
     60 H20         2.0260    6.1899    7.3068 H         1 SGA         0.0467
     61 H21         0.7326    4.1504    8.0971 H         1 SGA         0.1857
     62 H22        -1.0190    1.1000    6.5401 H         1 SGA         0.2126
     63 H23        -4.2252    0.1408    8.4992 H         1 SGA         0.2095
     64 H24        -5.8164    4.2934   10.3030 H         1 SGA         0.0938
     65 H25        -6.5580    5.4750   12.3079 H         1 SGA         0.0671
     66 H26        -3.6049    6.0003   12.9151 H         1 SGA         0.0648
     67 H27        -4.2245    8.3691   12.5706 H         1 SGA         0.0646
     68 H28        -3.3985    7.1710   10.6853 H         1 SGA         0.0621
     69 H29        -4.3402    8.3790    8.7839 H         1 SGA         0.0255
     70 H30        -4.0439    9.4492   10.1958 H         1 SGA         0.0255
     71 H31        -5.7146    8.9152    9.8086 H         1 SGA         0.0255
     72 H32        -5.9661    3.2781   12.5222 H         1 SGA         0.2101
     73 H33        -6.0511    6.6989   14.2337 H         1 SGA         0.2100
     74 H34        -6.4742    8.1454   13.1377 H         1 SGA         0.2100
@<TRIPOS>BOND
     1    1   11 1  
     2    7    1 1  
     3    1    2 1  
     4    2    8 1  
     5    2    3 1  
     6    3    9 1  
     7    3    4 1  
     8    4   10 1  
     9    5    4 1  
    10   11    5 1  
    11    5    6 1  
    12    6   12 1  
    13    9   13 1  
    14   13   16 ar 
    15   13   15 ar 
    16   13   14 ar 
    17   27   17 1  
    18   17   26 1  
    19   18   17 1  
    20   18   25 1  
    21   19   18 1  
    22   20   19 1  
    23   20   21 1  
    24   21   27 1  
    25   21   22 1  
    26   22   28 1  
    27   25   23 am 
    28   23   29 2  
    29   23   24 1  
    30   30   40 1  
    31   36   30 1  
    32   30   31 1  
    33   31   37 1  
    34   31   32 1  
    35   32   38 1  
    36   32   33 1  
    37   33   39 1  
    38   34   33 1  
    39   40   34 1  
    40   34   35 1  
    41   19    7 1  
    42   36   20 1  
    43    1   41 1  
    44    2   42 1  
    45    3   43 1  
    46    4   44 1  
    47    5   45 1  
    48    6   46 1  
    49    6   47 1  
    50    8   48 1  
    51   10   49 1  
    52   12   50 1  
    53   17   51 1  
    54   18   52 1  
    55   19   53 1  
    56   20   54 1  
    57   21   55 1  
    58   22   56 1  
    59   22   57 1  
    60   24   58 1  
    61   24   59 1  
    62   24   60 1  
    63   25   61 1  
    64   26   62 1  
    65   28   63 1  
    66   30   64 1  
    67   31   65 1  
    68   32   66 1  
    69   33   67 1  
    70   34   68 1  
    71   35   69 1  
    72   35   70 1  
    73   35   71 1  
    74   37   72 1  
    75   38   73 1  
    76   39   74 1  
@<TRIPOS>SUBSTRUCTURE
     1 SGA         1

