### 
### Created by X-TOOL on Mon Sep 10 21:12:48 2018
### 

@<TRIPOS>MOLECULE
1fzk_ligand
  132   135     1     0     0
SMALL
GAST_HUCK


@<TRIPOS>ATOM
      1 N          49.8640   56.5120    4.9650 N.4       1 PHE         0.2394
      2 CA         49.0430   57.6520    4.4610 C.3       1 PHE         0.0744
      3 C          48.5200   57.2540    3.0820 C.2       1 PHE         0.2288
      4 O          49.2850   57.1580    2.1260 O.2       1 PHE        -0.3905
      5 CB         49.9230   58.8970    4.3590 C.3       1 PHE         0.0416
      6 CG         49.1640   60.1900    4.3470 C.ar      1 PHE        -0.0353
      7 CD1        48.6860   60.7400    5.5280 C.ar      1 PHE        -0.0600
      8 CD2        48.9660   60.8820    3.1590 C.ar      1 PHE        -0.0600
      9 CE1        48.0300   61.9710    5.5270 C.ar      1 PHE        -0.0686
     10 CE2        48.3130   62.1120    3.1460 C.ar      1 PHE        -0.0686
     11 CZ         47.8440   62.6550    4.3340 C.ar      1 PHE        -0.0687
     12 N          47.2140   57.0330    2.9870 N.am      1 ALA        -0.2611
     13 CA         46.5830   56.5950    1.7430 C.3       1 ALA         0.1285
     14 C          46.4910   57.6250    0.6180 C.2       1 ALA         0.2061
     15 O          46.4970   58.8320    0.8630 O.2       1 ALA        -0.3942
     16 CB         45.1850   56.0640    2.0570 C.3       1 ALA        -0.0244
     17 N          46.4260   57.1520   -0.6420 N.am      1 PRO        -0.2498
     18 CA         46.3180   58.0500   -1.7960 C.3       1 PRO         0.1338
     19 C          45.0710   58.9120   -1.5810 C.2       1 PRO         0.2039
     20 O          44.0420   58.4140   -1.1100 O.2       1 PRO        -0.3944
     21 CB         46.1570   57.0850   -2.9650 C.3       1 PRO        -0.0104
     22 CG         46.9830   55.9180   -2.5420 C.3       1 PRO        -0.0281
     23 CD         46.6120   55.7550   -1.0790 C.3       1 PRO         0.0369
     24 N          45.1620   60.1890   -1.9420 N.am      1 GLY        -0.2664
     25 CA         44.0520   61.1020   -1.7290 C.3       1 GLY         0.1201
     26 C          42.9710   61.3220   -2.7730 C.2       1 GLY         0.2009
     27 O          41.8270   61.5740   -2.3950 O.2       1 GLY        -0.3947
     28 N          43.2910   61.2540   -4.0610 N.am      1 ASN        -0.2618
     29 CA         42.2590   61.4860   -5.0750 C.3       1 ASN         0.1476
     30 C          42.4150   60.6310   -6.3310 C.2       1 ASN         0.2064
     31 O          43.1650   60.9700   -7.2490 O.2       1 ASN        -0.3942
     32 CB         42.2070   62.9830   -5.4480 C.3       1 ASN         0.0773
     33 CG         43.3020   63.4020   -6.4200 C.2       1 ASN         0.1780
     34 OD1        43.1790   63.2130   -7.6320 O.2       1 ASN        -0.3970
     35 ND2        44.3790   63.9740   -5.8910 N.am      1 ASN        -0.3007
     36 N          41.7050   59.5090   -6.3680 N.am      1 TYR        -0.2620
     37 CA         41.7780   58.6360   -7.5300 C.3       1 TYR         0.1392
     38 C          40.9910   59.2830   -8.6630 C.2       1 TYR         0.2082
     39 O          39.7750   59.4520   -8.5610 O.2       1 TYR        -0.3940
     40 CB         41.1860   57.2580   -7.2230 C.3       1 TYR         0.0164
     41 CG         41.9370   56.4560   -6.1770 C.ar      1 TYR        -0.0493
     42 CD1        41.6350   56.5810   -4.8210 C.ar      1 TYR        -0.0685
     43 CD2        42.9270   55.5420   -6.5500 C.ar      1 TYR        -0.0685
     44 CE1        42.2940   55.8060   -3.8630 C.ar      1 TYR        -0.0398
     45 CE2        43.5930   54.7690   -5.6010 C.ar      1 TYR        -0.0398
     46 CZ         43.2690   54.9040   -4.2580 C.ar      1 TYR         0.0805
     47 OH         43.9110   54.1310   -3.3070 O.3       1 TYR        -0.3376
     48 N          41.6760   59.6550   -9.7580 N.am      1 PRO        -0.2497
     49 CA         41.0060   60.2870  -10.9000 C.3       1 PRO         0.1338
     50 C          39.9180   59.3760  -11.4560 C.2       1 PRO         0.2041
     51 O          40.0930   58.1600  -11.5020 O.2       1 PRO        -0.3944
     52 CB         42.1480   60.5040  -11.8880 C.3       1 PRO        -0.0104
     53 CG         43.0640   59.3450  -11.5890 C.3       1 PRO        -0.0281
     54 CD         43.0800   59.3500  -10.0810 C.3       1 PRO         0.0369
     55 N          38.8000   59.9600  -11.8780 N.am      1 ALA        -0.2640
     56 CA         37.6950   59.1750  -12.4190 C.3       1 ALA         0.1282
     57 C          38.1050   58.5230  -13.7350 C.2       1 ALA         0.2031
     58 O          38.8430   59.1160  -14.5200 O.2       1 ALA        -0.3944
     59 CB         36.4720   60.0710  -12.6350 C.3       1 ALA        -0.0244
     60 N          37.6300   57.3030  -13.9720 N.am      1 LEU        -0.2695
     61 CA         37.9570   56.5930  -15.2060 C.3       1 LEU         0.0946
     62 C          37.2290   57.1890  -16.4110 C.2       1 LEU         0.0601
     63 O          36.2890   57.9920  -16.1990 O.co2     1 LEU        -0.5666
     64 CB         37.5870   55.1100  -15.0800 C.3       1 LEU        -0.0156
     65 CG         38.2890   54.3190  -13.9780 C.3       1 LEU        -0.0431
     66 CD1        37.8050   52.8700  -14.0090 C.3       1 LEU        -0.0625
     67 CD2        39.7870   54.3730  -14.1780 C.3       1 LEU        -0.0625
     68 OXT        37.5970   56.8290  -17.5560 O.co2     1 LEU        -0.5666
     69 H1         50.2283   56.7379    5.8773 H         1 PHE         0.2017
     70 H2         50.6286   56.3422    4.3305 H         1 PHE         0.2017
     71 H3         49.2896   55.6861    5.0277 H         1 PHE         0.2017
     72 H4         48.2017   57.8478    5.1420 H         1 PHE         0.1122
     73 H5         50.5062   58.8313    3.4287 H         1 PHE         0.0507
     74 H6         50.6068   58.9070    5.2205 H         1 PHE         0.0507
     75 H7         48.8240   60.2070    6.4618 H         1 PHE         0.0557
     76 H8         49.3251   60.4583    2.2281 H         1 PHE         0.0557
     77 H9         47.6660   62.3928    6.4569 H         1 PHE         0.0599
     78 H10        48.1716   62.6432    2.2117 H         1 PHE         0.0599
     79 H11        47.3335   63.6113    4.3300 H         1 PHE         0.0559
     80 H12        46.6416   57.1711    3.7953 H         1 ALA         0.1884
     81 H13        47.1887   55.7614    1.3579 H         1 ALA         0.0797
     82 H14        44.7015   55.7316    1.1265 H         1 ALA         0.0277
     83 H15        44.5844   56.8623    2.5174 H         1 ALA         0.0277
     84 H16        45.2627   55.2158    2.7530 H         1 ALA         0.0277
     85 H17        47.2085   58.6838   -1.9195 H         1 PRO         0.0802
     86 H18        46.5397   57.5245   -3.8979 H         1 PRO         0.0313
     87 H19        45.1039   56.7975   -3.1000 H         1 PRO         0.0313
     88 H20        48.0562   56.1298   -2.6572 H         1 PRO         0.0287
     89 H21        46.7227   55.0185   -3.1192 H         1 PRO         0.0287
     90 H22        47.4203   55.2660   -0.5155 H         1 PRO         0.0524
     91 H23        45.6838   55.1757   -0.9659 H         1 PRO         0.0524
     92 H24        46.0039   60.5244   -2.3648 H         1 GLY         0.1881
     93 H25        43.5363   60.7514   -0.8229 H         1 GLY         0.0763
     94 H26        44.4991   62.0887   -1.5379 H         1 GLY         0.0763
     95 H27        44.2296   61.0459   -4.3363 H         1 ASN         0.1885
     96 H28        41.2937   61.2184   -4.6206 H         1 ASN         0.0826
     97 H29        42.3124   63.5757   -4.5274 H         1 ASN         0.0551
     98 H30        41.2312   63.1936   -5.9101 H         1 ASN         0.0551
     99 H31        45.1296   64.2693   -6.4821 H         1 ASN         0.1814
    100 H32        44.4386   64.1090   -4.9019 H         1 ASN         0.1814
    101 H33        41.1190   59.2637   -5.5957 H         1 TYR         0.1885
    102 H34        42.8295   58.5171   -7.8303 H         1 TYR         0.0821
    103 H35        41.1749   56.6758   -8.1562 H         1 TYR         0.0453
    104 H36        40.1548   57.4011   -6.8677 H         1 TYR         0.0453
    105 H37        40.8779   57.2898   -4.5057 H         1 TYR         0.0530
    106 H38        43.1815   55.4325   -7.5980 H         1 TYR         0.0530
    107 H39        42.0432   55.9101   -2.8136 H         1 TYR         0.0525
    108 H40        44.3591   54.0669   -5.9095 H         1 TYR         0.0525
    109 H41        44.5463   53.5684   -3.7341 H         1 TYR         0.2458
    110 H42        40.5568   61.2485  -10.6106 H         1 PRO         0.0802
    111 H43        42.6518   61.4652  -11.7082 H         1 PRO         0.0313
    112 H44        41.7873   60.4677  -12.9265 H         1 PRO         0.0313
    113 H45        44.0700   59.5121  -12.0013 H         1 PRO         0.0287
    114 H46        42.6585   58.4013  -11.9826 H         1 PRO         0.0287
    115 H47        43.7566   60.1249   -9.6915 H         1 PRO         0.0524
    116 H48        43.3774   58.3691   -9.6817 H         1 PRO         0.0524
    117 H49        38.7151   60.9549  -11.8236 H         1 ALA         0.1883
    118 H50        37.4345   58.3858  -11.6984 H         1 ALA         0.0797
    119 H51        35.6452   59.4708  -13.0426 H         1 ALA         0.0277
    120 H52        36.7260   60.8738  -13.3429 H         1 ALA         0.0277
    121 H53        36.1663   60.5120  -11.6748 H         1 ALA         0.0277
    122 H54        37.0395   56.8649  -13.2943 H         1 LEU         0.1875
    123 H55        39.0407   56.6756  -15.3756 H         1 LEU         0.0726
    124 H56        37.8215   54.6253  -16.0392 H         1 LEU         0.0308
    125 H57        36.5044   55.0512  -14.8944 H         1 LEU         0.0308
    126 H58        38.0415   54.7612  -13.0017 H         1 LEU         0.0297
    127 H59        38.3092   52.2980  -13.2161 H         1 LEU         0.0232
    128 H60        38.0399   52.4258  -14.9875 H         1 LEU         0.0232
    129 H61        36.7175   52.8430  -13.8456 H         1 LEU         0.0232
    130 H62        40.1226   55.4203  -14.1537 H         1 LEU         0.0232
    131 H63        40.0433   53.9284  -15.1509 H         1 LEU         0.0232
    132 H64        40.2847   53.8097  -13.3749 H         1 LEU         0.0232
@<TRIPOS>BOND
     1    3    2 1  
     2    2    5 1  
     3    2    1 1  
     4    5    6 1  
     5    6    8 ar 
     6    6    7 ar 
     7    7    9 ar 
     8    9   11 ar 
     9   10   11 ar 
    10    8   10 ar 
    11    3    4 2  
    12   14   13 1  
    13   13   16 1  
    14   13   12 1  
    15   14   15 2  
    16   18   17 1  
    17   18   21 1  
    18   19   18 1  
    19   19   20 2  
    20   21   22 1  
    21   22   23 1  
    22   17   23 1  
    23   26   25 1  
    24   25   24 1  
    25   26   27 2  
    26   30   29 1  
    27   29   32 1  
    28   29   28 1  
    29   32   33 1  
    30   33   34 2  
    31   33   35 am 
    32   30   31 2  
    33   38   37 1  
    34   37   40 1  
    35   37   36 1  
    36   40   41 1  
    37   41   43 ar 
    38   41   42 ar 
    39   42   44 ar 
    40   44   46 ar 
    41   46   47 1  
    42   45   46 ar 
    43   43   45 ar 
    44   38   39 2  
    45   49   48 1  
    46   49   52 1  
    47   50   49 1  
    48   50   51 2  
    49   52   53 1  
    50   53   54 1  
    51   48   54 1  
    52   57   56 1  
    53   56   59 1  
    54   56   55 1  
    55   57   58 2  
    56   61   62 1  
    57   61   64 1  
    58   60   61 1  
    59   64   65 1  
    60   65   67 1  
    61   65   66 1  
    62   62   68 ar 
    63   62   63 ar 
    64   12    3 am 
    65   17   14 am 
    66   24   19 am 
    67   28   26 am 
    68   36   30 am 
    69   48   38 am 
    70   55   50 am 
    71   57   60 am 
    72    1   69 1  
    73    1   70 1  
    74    1   71 1  
    75    2   72 1  
    76    5   73 1  
    77    5   74 1  
    78    7   75 1  
    79    8   76 1  
    80    9   77 1  
    81   10   78 1  
    82   11   79 1  
    83   12   80 1  
    84   13   81 1  
    85   16   82 1  
    86   16   83 1  
    87   16   84 1  
    88   18   85 1  
    89   21   86 1  
    90   21   87 1  
    91   22   88 1  
    92   22   89 1  
    93   23   90 1  
    94   23   91 1  
    95   24   92 1  
    96   25   93 1  
    97   25   94 1  
    98   28   95 1  
    99   29   96 1  
   100   32   97 1  
   101   32   98 1  
   102   35   99 1  
   103   35  100 1  
   104   36  101 1  
   105   37  102 1  
   106   40  103 1  
   107   40  104 1  
   108   42  105 1  
   109   43  106 1  
   110   44  107 1  
   111   45  108 1  
   112   47  109 1  
   113   49  110 1  
   114   52  111 1  
   115   52  112 1  
   116   53  113 1  
   117   53  114 1  
   118   54  115 1  
   119   54  116 1  
   120   55  117 1  
   121   56  118 1  
   122   59  119 1  
   123   59  120 1  
   124   59  121 1  
   125   60  122 1  
   126   61  123 1  
   127   64  124 1  
   128   64  125 1  
   129   65  126 1  
   130   66  127 1  
   131   66  128 1  
   132   66  129 1  
   133   67  130 1  
   134   67  131 1  
   135   67  132 1  
@<TRIPOS>SUBSTRUCTURE
     1 PHE         1

