### 
### Created by X-TOOL on Mon Sep 10 21:12:48 2018
### 

@<TRIPOS>MOLECULE
1fzm_ligand
  135   136     1     0     0
SMALL
GAST_HUCK


@<TRIPOS>ATOM
      1 N          50.4940   57.5700    4.4450 N.4       1 ARG         0.2379
      2 CA         49.1170   58.1030    4.2320 C.3       1 ARG         0.0651
      3 C          48.6510   57.9380    2.7910 C.2       1 ARG         0.2265
      4 O          49.4540   57.9230    1.8570 O.2       1 ARG        -0.3907
      5 CB         49.0360   59.5750    4.6570 C.3       1 ARG         0.0110
      6 CG         49.9950   60.5080    3.9670 C.3       1 ARG        -0.0125
      7 CD         49.6730   61.9510    4.3400 C.3       1 ARG         0.0629
      8 NE         49.3790   62.0890    5.7660 N.pl3     1 ARG        -0.2723
      9 CZ         48.9820   63.2210    6.3450 C.cat     1 ARG         0.2882
     10 NH1        48.8290   64.3240    5.6230 N.pl3     1 ARG        -0.2849
     11 NH2        48.7310   63.2510    7.6480 N.pl3     1 ARG        -0.2849
     12 N          47.3350   57.8330    2.6220 N.am      1 GLY        -0.2637
     13 CA         46.7590   57.6070    1.3120 C.3       1 GLY         0.1202
     14 C          46.6870   58.7250    0.2950 C.2       1 GLY         0.2009
     15 O          46.9080   59.8920    0.5970 O.2       1 GLY        -0.3947
     16 N          46.3340   58.3390   -0.9240 N.am      1 TYR        -0.2624
     17 CA         46.2180   59.2450   -2.0550 C.3       1 TYR         0.1390
     18 C          44.7570   59.6140   -2.2900 C.2       1 TYR         0.2057
     19 O          43.8500   58.9310   -1.8160 O.2       1 TYR        -0.3942
     20 CB         46.7610   58.5480   -3.3070 C.3       1 TYR         0.0163
     21 CG         46.9150   59.4030   -4.5420 C.ar      1 TYR        -0.0493
     22 CD1        47.8130   60.4790   -4.5620 C.ar      1 TYR        -0.0685
     23 CD2        46.2140   59.1090   -5.7130 C.ar      1 TYR        -0.0685
     24 CE1        48.0110   61.2270   -5.7080 C.ar      1 TYR        -0.0398
     25 CE2        46.4040   59.8580   -6.8740 C.ar      1 TYR        -0.0398
     26 CZ         47.3130   60.9210   -6.8590 C.ar      1 TYR         0.0805
     27 OH         47.5280   61.6670   -7.9930 O.3       1 TYR        -0.3376
     28 N          44.5410   60.7150   -2.9990 N.am      1 VAL        -0.2633
     29 CA         43.1920   61.1390   -3.3690 C.3       1 VAL         0.1333
     30 C          43.1760   60.8270   -4.8600 C.2       1 VAL         0.2043
     31 O          43.8280   61.5040   -5.6570 O.2       1 VAL        -0.3944
     32 CB         42.9630   62.6550   -3.1320 C.3       1 VAL        -0.0063
     33 CG1        41.6090   63.0660   -3.6950 C.3       1 VAL        -0.0584
     34 CG2        43.0140   62.9600   -1.6420 C.3       1 VAL        -0.0584
     35 N          42.4530   59.7710   -5.2350 N.am      1 TYR        -0.2621
     36 CA         42.3960   59.3320   -6.6230 C.3       1 TYR         0.1390
     37 C          41.6610   60.2220   -7.6180 C.2       1 TYR         0.2057
     38 O          40.7240   60.9360   -7.2670 O.2       1 TYR        -0.3942
     39 CB         41.8360   57.9020   -6.6920 C.3       1 TYR         0.0163
     40 CG         42.6530   56.9240   -5.8710 C.ar      1 TYR        -0.0493
     41 CD1        42.4300   56.7770   -4.5090 C.ar      1 TYR        -0.0685
     42 CD2        43.6990   56.2020   -6.4480 C.ar      1 TYR        -0.0685
     43 CE1        43.2320   55.9390   -3.7290 C.ar      1 TYR        -0.0398
     44 CE2        44.5090   55.3600   -5.6760 C.ar      1 TYR        -0.0398
     45 CZ         44.2710   55.2400   -4.3260 C.ar      1 TYR         0.0805
     46 OH         45.0800   54.4470   -3.5450 O.3       1 TYR        -0.3376
     47 N          42.1170   60.1610   -8.8640 N.am      1 GLN        -0.2634
     48 CA         41.5600   60.9320   -9.9750 C.3       1 GLN         0.1330
     49 C          40.4710   60.1370  -10.7000 C.2       1 GLN         0.2038
     50 O          40.6090   58.9290  -10.8980 O.2       1 GLN        -0.3944
     51 CB         42.6810   61.2750  -10.9620 C.3       1 GLN         0.0045
     52 CG         42.2720   62.1910  -12.1010 C.3       1 GLN         0.0412
     53 CD         41.8830   63.5670  -11.6050 C.2       1 GLN         0.1737
     54 OE1        40.7090   63.9470  -11.6300 O.2       1 GLN        -0.3973
     55 NE2        42.8690   64.3180  -11.1300 N.am      1 GLN        -0.3009
     56 N          39.3980   60.8120  -11.1050 N.am      1 GLY        -0.2664
     57 CA         38.3220   60.1280  -11.8130 C.3       1 GLY         0.1201
     58 C          38.6950   59.5160  -13.1590 C.2       1 GLY         0.2002
     59 O          39.5040   60.0710  -13.9040 O.2       1 GLY        -0.3947
     60 N          38.0950   58.3680  -13.4800 N.am      1 LEU        -0.2697
     61 CA         38.3660   57.6730  -14.7430 C.3       1 LEU         0.0946
     62 C          37.6520   58.2980  -15.9450 C.2       1 LEU         0.0601
     63 O          36.7000   59.0840  -15.7280 O.co2     1 LEU        -0.5666
     64 CB         37.9480   56.2010  -14.6330 C.3       1 LEU        -0.0156
     65 CG         38.5740   55.3810  -13.5120 C.3       1 LEU        -0.0431
     66 CD1        38.0060   53.9610  -13.5490 C.3       1 LEU        -0.0625
     67 CD2        40.0940   55.3700  -13.6800 C.3       1 LEU        -0.0625
     68 OXT        38.0400   57.9840  -17.0960 O.co2     1 LEU        -0.5666
     69 H1         50.7593   57.7001    5.4087 H         1 ARG         0.2015
     70 H2         51.1408   58.0624    3.8491 H         1 ARG         0.2015
     71 H3         50.5123   56.5873    4.2212 H         1 ARG         0.2015
     72 H4         48.4334   57.5262    4.8723 H         1 ARG         0.1098
     73 H5         49.2338   59.6260    5.7379 H         1 ARG         0.0347
     74 H6         48.0147   59.9296    4.4540 H         1 ARG         0.0347
     75 H7         49.9048   60.3839    2.8778 H         1 ARG         0.0302
     76 H8         51.0228   60.2712    4.2792 H         1 ARG         0.0302
     77 H9         48.7974   62.2816    3.7620 H         1 ARG         0.0689
     78 H10        50.5371   62.5847    4.0914 H         1 ARG         0.0689
     79 H11        49.4860   61.2558    6.3620 H         1 ARG         0.2642
     80 H12        48.5218   65.1970    6.0751 H         1 ARG         0.2615
     81 H13        49.0174   64.3070    4.6105 H         1 ARG         0.2615
     82 H14        48.8476   62.3988    8.2147 H         1 ARG         0.2615
     83 H15        48.4197   64.1265    8.0925 H         1 ARG         0.2615
     84 H16        46.7315   57.9117    3.4155 H         1 GLY         0.1882
     85 H17        47.3420   56.7978    0.8482 H         1 GLY         0.0763
     86 H18        45.7263   57.2664    1.4777 H         1 GLY         0.0763
     87 H19        46.1365   57.3701   -1.0734 H         1 TYR         0.1885
     88 H20        46.7993   60.1572   -1.8553 H         1 TYR         0.0821
     89 H21        46.0754   57.7242   -3.5545 H         1 TYR         0.0453
     90 H22        47.7513   58.1388   -3.0585 H         1 TYR         0.0453
     91 H23        48.3627   60.7295   -3.6620 H         1 TYR         0.0530
     92 H24        45.5101   58.2846   -5.7199 H         1 TYR         0.0530
     93 H25        48.7134   62.0526   -5.7026 H         1 TYR         0.0525
     94 H26        45.8539   59.6193   -7.7770 H         1 TYR         0.0525
     95 H27        46.9796   61.3383   -8.6956 H         1 TYR         0.2458
     96 H28        45.3218   61.2691   -3.2877 H         1 VAL         0.1883
     97 H29        42.4294   60.5627   -2.8247 H         1 VAL         0.0802
     98 H30        43.7540   63.2231   -3.6434 H         1 VAL         0.0343
     99 H31        41.4520   64.1413   -3.5243 H         1 VAL         0.0234
    100 H32        40.8143   62.4951   -3.1924 H         1 VAL         0.0234
    101 H33        41.5826   62.8586   -4.7749 H         1 VAL         0.0234
    102 H34        43.9934   62.6616   -1.2400 H         1 VAL         0.0234
    103 H35        42.2199   62.4006   -1.1258 H         1 VAL         0.0234
    104 H36        42.8656   64.0383   -1.4831 H         1 VAL         0.0234
    105 H37        41.9354   59.2663   -4.5441 H         1 TYR         0.1885
    106 H38        43.4396   59.2939   -6.9687 H         1 TYR         0.0821
    107 H39        41.8383   57.5714   -7.7411 H         1 TYR         0.0453
    108 H40        40.8039   57.9075   -6.3115 H         1 TYR         0.0453
    109 H41        41.6184   57.3225   -4.0412 H         1 TYR         0.0530
    110 H42        43.8875   56.2946   -7.5115 H         1 TYR         0.0530
    111 H43        43.0437   55.8362   -2.6664 H         1 TYR         0.0525
    112 H44        45.3180   54.8065   -6.1388 H         1 TYR         0.0525
    113 H45        45.5024   54.9820   -2.8834 H         1 TYR         0.2458
    114 H46        42.8869   59.5517   -9.0537 H         1 GLN         0.1883
    115 H47        41.1230   61.8621   -9.5825 H         1 GLN         0.0801
    116 H48        43.0533   60.3354  -11.3962 H         1 GLN         0.0337
    117 H49        43.4905   61.7664  -10.4023 H         1 GLN         0.0337
    118 H50        41.4134   61.7458  -12.6250 H         1 GLN         0.0504
    119 H51        43.1164   62.2899  -12.7989 H         1 GLN         0.0504
    120 H52        42.6766   65.2374  -10.7871 H         1 GLN         0.1814
    121 H53        43.8043   63.9644  -11.1151 H         1 GLN         0.1814
    122 H54        39.3292   61.7929  -10.9230 H         1 GLY         0.1881
    123 H55        37.9532   59.3190  -11.1653 H         1 GLY         0.0763
    124 H56        37.5157   60.8561  -11.9855 H         1 GLY         0.0763
    125 H57        37.4396   57.9687  -12.8389 H         1 LEU         0.1875
    126 H58        39.4494   57.7200  -14.9273 H         1 LEU         0.0726
    127 H59        38.2055   55.7120  -15.5841 H         1 LEU         0.0308
    128 H60        36.8574   56.1764  -14.4915 H         1 LEU         0.0308
    129 H61        38.3255   55.8399  -12.5437 H         1 LEU         0.0297
    130 H62        38.4555   53.3652  -12.7409 H         1 LEU         0.0232
    131 H63        38.2391   53.4980  -14.5192 H         1 LEU         0.0232
    132 H64        36.9151   53.9988  -13.4134 H         1 LEU         0.0232
    133 H65        40.4737   56.4019  -13.6495 H         1 LEU         0.0232
    134 H66        40.3528   54.9125  -14.6463 H         1 LEU         0.0232
    135 H67        40.5488   54.7877  -12.8651 H         1 LEU         0.0232
@<TRIPOS>BOND
     1    3    2 1  
     2    2    5 1  
     3    2    1 1  
     4    5    6 1  
     5    6    7 1  
     6    7    8 1  
     7    8    9 ar 
     8    9   10 ar 
     9    9   11 ar 
    10    3    4 2  
    11   14   13 1  
    12   13   12 1  
    13   14   15 2  
    14   18   17 1  
    15   17   20 1  
    16   17   16 1  
    17   20   21 1  
    18   21   23 ar 
    19   21   22 ar 
    20   22   24 ar 
    21   24   26 ar 
    22   26   27 1  
    23   25   26 ar 
    24   23   25 ar 
    25   18   19 2  
    26   30   29 1  
    27   29   32 1  
    28   29   28 1  
    29   32   33 1  
    30   32   34 1  
    31   30   31 2  
    32   37   36 1  
    33   36   39 1  
    34   36   35 1  
    35   39   40 1  
    36   40   42 ar 
    37   40   41 ar 
    38   41   43 ar 
    39   43   45 ar 
    40   45   46 1  
    41   44   45 ar 
    42   42   44 ar 
    43   37   38 2  
    44   49   48 1  
    45   48   51 1  
    46   48   47 1  
    47   51   52 1  
    48   52   53 1  
    49   53   54 2  
    50   53   55 am 
    51   49   50 2  
    52   58   57 1  
    53   57   56 1  
    54   58   59 2  
    55   61   62 1  
    56   61   64 1  
    57   60   61 1  
    58   64   65 1  
    59   65   67 1  
    60   65   66 1  
    61   62   68 ar 
    62   62   63 ar 
    63   12    3 am 
    64   16   14 am 
    65   28   18 am 
    66   35   30 am 
    67   47   37 am 
    68   56   49 am 
    69   58   60 am 
    70    1   69 1  
    71    1   70 1  
    72    1   71 1  
    73    2   72 1  
    74    5   73 1  
    75    5   74 1  
    76    6   75 1  
    77    6   76 1  
    78    7   77 1  
    79    7   78 1  
    80    8   79 1  
    81   10   80 1  
    82   10   81 1  
    83   11   82 1  
    84   11   83 1  
    85   12   84 1  
    86   13   85 1  
    87   13   86 1  
    88   16   87 1  
    89   17   88 1  
    90   20   89 1  
    91   20   90 1  
    92   22   91 1  
    93   23   92 1  
    94   24   93 1  
    95   25   94 1  
    96   27   95 1  
    97   28   96 1  
    98   29   97 1  
    99   32   98 1  
   100   33   99 1  
   101   33  100 1  
   102   33  101 1  
   103   34  102 1  
   104   34  103 1  
   105   34  104 1  
   106   35  105 1  
   107   36  106 1  
   108   39  107 1  
   109   39  108 1  
   110   41  109 1  
   111   42  110 1  
   112   43  111 1  
   113   44  112 1  
   114   46  113 1  
   115   47  114 1  
   116   48  115 1  
   117   51  116 1  
   118   51  117 1  
   119   52  118 1  
   120   52  119 1  
   121   55  120 1  
   122   55  121 1  
   123   56  122 1  
   124   57  123 1  
   125   57  124 1  
   126   60  125 1  
   127   61  126 1  
   128   64  127 1  
   129   64  128 1  
   130   65  129 1  
   131   66  130 1  
   132   66  131 1  
   133   66  132 1  
   134   67  133 1  
   135   67  134 1  
   136   67  135 1  
@<TRIPOS>SUBSTRUCTURE
     1 ARG         1

