### 
### Created by X-TOOL on Mon Sep 10 21:12:48 2018
### 

@<TRIPOS>MOLECULE
1fzo_ligand
  132   135     1     0     0
SMALL
GAST_HUCK


@<TRIPOS>ATOM
      1 N          49.9980   56.8390    4.5850 N.4       1 PHE         0.2394
      2 CA         48.9250   57.8010    4.2470 C.3       1 PHE         0.0744
      3 C          48.4850   57.5110    2.8140 C.2       1 PHE         0.2288
      4 O          49.3070   57.4230    1.9050 O.2       1 PHE        -0.3905
      5 CB         49.4570   59.2330    4.3770 C.3       1 PHE         0.0416
      6 CG         48.4180   60.2280    4.7980 C.ar      1 PHE        -0.0353
      7 CD1        47.6680   60.0220    5.9540 C.ar      1 PHE        -0.0600
      8 CD2        48.1960   61.3800    4.0510 C.ar      1 PHE        -0.0600
      9 CE1        46.6970   60.9580    6.3700 C.ar      1 PHE        -0.0686
     10 CE2        47.2350   62.3190    4.4490 C.ar      1 PHE        -0.0686
     11 CZ         46.4810   62.1060    5.6170 C.ar      1 PHE        -0.0687
     12 N          47.1810   57.3640    2.6330 N.am      1 ALA        -0.2611
     13 CA         46.6010   57.0200    1.3440 C.3       1 ALA         0.1285
     14 C          46.6570   58.0950    0.2830 C.2       1 ALA         0.2061
     15 O          46.8280   59.2740    0.5800 O.2       1 ALA        -0.3942
     16 CB         45.1430   56.5920    1.5520 C.3       1 ALA        -0.0244
     17 N          46.5210   57.6920   -0.9920 N.am      1 PRO        -0.2498
     18 CA         46.5420   58.6680   -2.0840 C.3       1 PRO         0.1338
     19 C          45.5140   59.7600   -1.7620 C.2       1 PRO         0.2039
     20 O          44.4650   59.4680   -1.2110 O.2       1 PRO        -0.3944
     21 CB         46.1150   57.8360   -3.2910 C.3       1 PRO        -0.0104
     22 CG         46.7460   56.4700   -2.9920 C.3       1 PRO        -0.0281
     23 CD         46.4670   56.3000   -1.4990 C.3       1 PRO         0.0369
     24 N          45.8070   61.0120   -2.1120 N.am      1 GLY        -0.2664
     25 CA         44.8650   62.0900   -1.8380 C.3       1 GLY         0.1201
     26 C          43.4710   61.8100   -2.3730 C.2       1 GLY         0.2009
     27 O          42.4610   62.1420   -1.7420 O.2       1 GLY        -0.3947
     28 N          43.4120   61.2090   -3.5560 N.am      1 ASN        -0.2618
     29 CA         42.1460   60.8620   -4.1650 C.3       1 ASN         0.1476
     30 C          42.4240   59.9640   -5.3660 C.2       1 ASN         0.2064
     31 O          43.5810   59.7360   -5.7380 O.2       1 ASN        -0.3942
     32 CB         41.3850   62.1140   -4.6290 C.3       1 ASN         0.0773
     33 CG         41.9470   62.7050   -5.9160 C.2       1 ASN         0.1780
     34 OD1        41.2020   62.9810   -6.8610 O.2       1 ASN        -0.3970
     35 ND2        43.2540   62.9160   -5.9540 N.am      1 ASN        -0.3007
     36 N          41.3550   59.4480   -5.9500 N.am      1 TYR        -0.2620
     37 CA         41.4730   58.5890   -7.1110 C.3       1 TYR         0.1392
     38 C          40.6230   59.2360   -8.1920 C.2       1 TYR         0.2082
     39 O          39.3930   59.1330   -8.1870 O.2       1 TYR        -0.3940
     40 CB         40.9690   57.1720   -6.8020 C.3       1 TYR         0.0164
     41 CG         41.7980   56.4070   -5.7760 C.ar      1 TYR        -0.0493
     42 CD1        41.5060   56.4850   -4.4190 C.ar      1 TYR        -0.0685
     43 CD2        42.8650   55.5800   -6.1780 C.ar      1 TYR        -0.0685
     44 CE1        42.2500   55.7600   -3.4850 C.ar      1 TYR        -0.0398
     45 CE2        43.6160   54.8550   -5.2550 C.ar      1 TYR        -0.0398
     46 CZ         43.3020   54.9510   -3.9090 C.ar      1 TYR         0.0805
     47 OH         44.0390   54.2570   -2.9800 O.3       1 TYR        -0.3376
     48 N          41.2700   59.9470   -9.1200 N.am      1 PRO        -0.2497
     49 CA         40.5490   60.6180  -10.2130 C.3       1 PRO         0.1338
     50 C          39.5750   59.6530  -10.8850 C.2       1 PRO         0.2041
     51 O          39.9070   58.4900  -11.1000 O.2       1 PRO        -0.3944
     52 CB         41.6730   61.0400  -11.1590 C.3       1 PRO        -0.0104
     53 CG         42.8400   61.2490  -10.2330 C.3       1 PRO        -0.0281
     54 CD         42.7300   60.0840   -9.2760 C.3       1 PRO         0.0369
     55 N          38.3820   60.1330  -11.2210 N.am      1 ALA        -0.2640
     56 CA         37.3880   59.2820  -11.8620 C.3       1 ALA         0.1282
     57 C          37.8930   58.7890  -13.2090 C.2       1 ALA         0.2031
     58 O          38.6540   59.4710  -13.8850 O.2       1 ALA        -0.3944
     59 CB         36.0800   60.0320  -12.0420 C.3       1 ALA        -0.0244
     60 N          37.4750   57.5800  -13.5670 N.am      1 LEU        -0.2695
     61 CA         37.8540   56.9430  -14.8270 C.3       1 LEU         0.0946
     62 C          37.1400   57.5810  -16.0360 C.2       1 LEU         0.0601
     63 O          36.2100   58.3950  -15.8230 O.co2     1 LEU        -0.5666
     64 CB         37.5030   55.4460  -14.7620 C.3       1 LEU        -0.0156
     65 CG         38.1520   54.6360  -13.6420 C.3       1 LEU        -0.0431
     66 CD1        37.6350   53.2080  -13.6940 C.3       1 LEU        -0.0625
     67 CD2        39.6620   54.6480  -13.7860 C.3       1 LEU        -0.0625
     68 OXT        37.5070   57.2420  -17.1890 O.co2     1 LEU        -0.5666
     69 H1         50.3121   57.0039    5.5285 H         1 PHE         0.2017
     70 H2         50.7699   56.9592    3.9480 H         1 PHE         0.2017
     71 H3         49.6426   55.8988    4.5088 H         1 PHE         0.2017
     72 H4         48.0732   57.6675    4.9300 H         1 PHE         0.1122
     73 H5         49.8594   59.5435    3.4015 H         1 PHE         0.0507
     74 H6         50.2639   59.2368    5.1246 H         1 PHE         0.0507
     75 H7         47.8331   59.1277    6.5439 H         1 PHE         0.0557
     76 H8         48.7733   61.5536    3.1501 H         1 PHE         0.0557
     77 H9         46.1226   60.7824    7.2723 H         1 PHE         0.0599
     78 H10        47.0724   63.2114    3.8554 H         1 PHE         0.0599
     79 H11        45.7375   62.8313    5.9273 H         1 PHE         0.0559
     80 H12        46.5705   57.4948    3.4142 H         1 ALA         0.1884
     81 H13        47.1641   56.1577    0.9575 H         1 ALA         0.0797
     82 H14        44.6959   56.3298    0.5818 H         1 ALA         0.0277
     83 H15        44.5784   57.4209    2.0038 H         1 ALA         0.0277
     84 H16        45.1090   55.7183    2.2195 H         1 ALA         0.0277
     85 H17        47.5393   59.1086   -2.2301 H         1 PRO         0.0802
     86 H18        46.5097   58.2602   -4.2260 H         1 PRO         0.0313
     87 H19        45.0194   57.7622   -3.3556 H         1 PRO         0.0313
     88 H20        47.8268   56.4774   -3.1966 H         1 PRO         0.0287
     89 H21        46.2670   55.6730   -3.5797 H         1 PRO         0.0287
     90 H22        47.2356   55.6747   -1.0213 H         1 PRO         0.0524
     91 H23        45.4752   55.8553   -1.3297 H         1 PRO         0.0524
     92 H24        46.6761   61.2126   -2.5642 H         1 GLY         0.1881
     93 H25        44.8008   62.2311   -0.7490 H         1 GLY         0.0763
     94 H26        45.2414   63.0117   -2.3056 H         1 GLY         0.0763
     95 H27        44.2615   60.9914   -4.0366 H         1 ASN         0.1885
     96 H28        41.5294   60.3194   -3.4333 H         1 ASN         0.0826
     97 H29        41.4454   62.8753   -3.8373 H         1 ASN         0.0551
     98 H30        40.3323   61.8429   -4.7974 H         1 ASN         0.0551
     99 H31        43.6744   63.3023   -6.7750 H         1 ASN         0.1814
    100 H32        43.8204   62.6890   -5.1617 H         1 ASN         0.1814
    101 H33        40.4480   59.6547   -5.5832 H         1 TYR         0.1885
    102 H34        42.5226   58.5352   -7.4356 H         1 TYR         0.0821
    103 H35        40.9695   56.5967   -7.7396 H         1 TYR         0.0453
    104 H36        39.9403   57.2505   -6.4205 H         1 TYR         0.0453
    105 H37        40.6915   57.1158   -4.0817 H         1 TYR         0.0530
    106 H38        43.1080   55.5057   -7.2318 H         1 TYR         0.0530
    107 H39        42.0088   55.8269   -2.4303 H         1 TYR         0.0525
    108 H40        44.4340   54.2250   -5.5853 H         1 TYR         0.0525
    109 H41        44.7137   53.7559   -3.4229 H         1 TYR         0.2458
    110 H42        39.9974   61.4953   -9.8441 H         1 PRO         0.0802
    111 H43        41.4163   61.9705  -11.6865 H         1 PRO         0.0313
    112 H44        41.8885   60.2497  -11.8932 H         1 PRO         0.0313
    113 H45        42.7547   62.2074   -9.7000 H         1 PRO         0.0287
    114 H46        43.7917   61.2192  -10.7838 H         1 PRO         0.0287
    115 H47        43.2144   60.3102   -8.3147 H         1 PRO         0.0524
    116 H48        43.1727   59.1726   -9.7043 H         1 PRO         0.0524
    117 H49        38.1638   61.0903  -11.0315 H         1 ALA         0.1883
    118 H50        37.2066   58.4108  -11.2155 H         1 ALA         0.0797
    119 H51        35.3437   59.3739  -12.5266 H         1 ALA         0.0277
    120 H52        36.2492   60.9186  -12.6707 H         1 ALA         0.0277
    121 H53        35.6995   60.3467  -11.0591 H         1 ALA         0.0277
    122 H54        36.8718   57.0814  -12.9444 H         1 LEU         0.1875
    123 H55        38.9399   57.0535  -14.9630 H         1 LEU         0.0726
    124 H56        37.8026   54.9919  -15.7180 H         1 LEU         0.0308
    125 H57        36.4125   55.3645  -14.6431 H         1 LEU         0.0308
    126 H58        37.8828   55.0821  -12.6732 H         1 LEU         0.0297
    127 H59        38.0998   52.6202  -12.8887 H         1 LEU         0.0232
    128 H60        37.8882   52.7615  -14.6669 H         1 LEU         0.0232
    129 H61        36.5427   53.2085  -13.5639 H         1 LEU         0.0232
    130 H62        40.0258   55.6854  -13.7471 H         1 LEU         0.0232
    131 H63        39.9421   54.1972  -14.7495 H         1 LEU         0.0232
    132 H64        40.1132   54.0703  -12.9659 H         1 LEU         0.0232
@<TRIPOS>BOND
     1    3    2 1  
     2    2    5 1  
     3    2    1 1  
     4    5    6 1  
     5    6    8 ar 
     6    6    7 ar 
     7    7    9 ar 
     8    9   11 ar 
     9   10   11 ar 
    10    8   10 ar 
    11    3    4 2  
    12   14   13 1  
    13   13   16 1  
    14   13   12 1  
    15   14   15 2  
    16   18   17 1  
    17   18   21 1  
    18   19   18 1  
    19   19   20 2  
    20   21   22 1  
    21   22   23 1  
    22   17   23 1  
    23   26   25 1  
    24   25   24 1  
    25   26   27 2  
    26   30   29 1  
    27   29   32 1  
    28   29   28 1  
    29   32   33 1  
    30   33   34 2  
    31   33   35 am 
    32   30   31 2  
    33   38   37 1  
    34   37   40 1  
    35   37   36 1  
    36   40   41 1  
    37   41   43 ar 
    38   41   42 ar 
    39   42   44 ar 
    40   44   46 ar 
    41   46   47 1  
    42   45   46 ar 
    43   43   45 ar 
    44   38   39 2  
    45   49   48 1  
    46   49   52 1  
    47   50   49 1  
    48   50   51 2  
    49   52   53 1  
    50   53   54 1  
    51   48   54 1  
    52   57   56 1  
    53   56   59 1  
    54   56   55 1  
    55   57   58 2  
    56   61   62 1  
    57   61   64 1  
    58   60   61 1  
    59   64   65 1  
    60   65   67 1  
    61   65   66 1  
    62   62   68 ar 
    63   62   63 ar 
    64   12    3 am 
    65   17   14 am 
    66   24   19 am 
    67   28   26 am 
    68   36   30 am 
    69   48   38 am 
    70   55   50 am 
    71   57   60 am 
    72    1   69 1  
    73    1   70 1  
    74    1   71 1  
    75    2   72 1  
    76    5   73 1  
    77    5   74 1  
    78    7   75 1  
    79    8   76 1  
    80    9   77 1  
    81   10   78 1  
    82   11   79 1  
    83   12   80 1  
    84   13   81 1  
    85   16   82 1  
    86   16   83 1  
    87   16   84 1  
    88   18   85 1  
    89   21   86 1  
    90   21   87 1  
    91   22   88 1  
    92   22   89 1  
    93   23   90 1  
    94   23   91 1  
    95   24   92 1  
    96   25   93 1  
    97   25   94 1  
    98   28   95 1  
    99   29   96 1  
   100   32   97 1  
   101   32   98 1  
   102   35   99 1  
   103   35  100 1  
   104   36  101 1  
   105   37  102 1  
   106   40  103 1  
   107   40  104 1  
   108   42  105 1  
   109   43  106 1  
   110   44  107 1  
   111   45  108 1  
   112   47  109 1  
   113   49  110 1  
   114   52  111 1  
   115   52  112 1  
   116   53  113 1  
   117   53  114 1  
   118   54  115 1  
   119   54  116 1  
   120   55  117 1  
   121   56  118 1  
   122   59  119 1  
   123   59  120 1  
   124   59  121 1  
   125   60  122 1  
   126   61  123 1  
   127   64  124 1  
   128   64  125 1  
   129   65  126 1  
   130   66  127 1  
   131   66  128 1  
   132   66  129 1  
   133   67  130 1  
   134   67  131 1  
   135   67  132 1  
@<TRIPOS>SUBSTRUCTURE
     1 PHE         1

