### 
### Created by X-TOOL on Mon Sep 10 21:12:48 2018
### 

@<TRIPOS>MOLECULE
1g05_ligand
   50    52     1     0     0
SMALL
GAST_HUCK


@<TRIPOS>ATOM
      1 C1          3.1000   48.3590   54.7670 C.ar      1 BBH         0.0974
      2 C2          3.6250   48.8490   55.9940 C.ar      1 BBH        -0.0440
      3 C3          3.0830   48.4380   57.2390 C.ar      1 BBH        -0.0313
      4 C4          2.0330   47.5170   57.2080 C.ar      1 BBH         0.0908
      5 C5          1.5240   47.0430   55.9930 C.ar      1 BBH        -0.0313
      6 C6          2.0350   47.4540   54.7570 C.ar      1 BBH        -0.0440
      7 O7          1.5140   47.0890   58.2610 O.3       1 BBH        -0.3212
      8 C8          2.0440   47.4360   59.5530 C.3       1 BBH         0.0594
      9 S9          3.7060   48.7960   53.2200 S.o2      1 BBH         0.0697
     10 O10         3.2850   47.7490   52.2610 O.2       1 BBH        -0.1513
     11 O11         5.1370   48.9360   53.3960 O.2       1 BBH        -0.1513
     12 N12         2.9710   50.1530   52.6980 N.am      1 BBH        -0.1890
     13 C13         1.7680   49.9490   51.8600 C.3       1 BBH         0.1496
     14 C14         1.7270   50.8640   50.6150 C.3       1 BBH         0.0747
     15 C15         2.4360   52.2120   50.7840 C.2       1 BBH         0.1857
     16 N16         3.5150   52.3660   51.7400 N.am      1 BBH        -0.2437
     17 C17         3.5270   51.5110   52.9580 C.3       1 BBH         0.1205
     18 O18         2.0950   53.2940   50.0590 O.2       1 BBH        -0.3964
     19 C           0.5180   50.0920   52.7010 C.2       1 BBH         0.2232
     20 NA         -0.3340   49.0630   52.7690 N.am      1 BBH        -0.1625
     21 OA         -1.5390   49.2140   53.4630 O.3       1 BBH        -0.2717
     22 OB          0.2620   51.2210   53.3510 O.2       1 BBH        -0.3947
     23 C7          4.5440   53.4070   51.4590 C.3       1 BBH         0.0691
     24 C9          7.6170   51.2560   50.7680 C.ar      1 BBH        -0.0685
     25 C10         6.3560   51.8210   50.6750 C.ar      1 BBH        -0.0584
     26 C11         5.9420   52.8030   51.5780 C.ar      1 BBH        -0.0207
     27 C12         6.8110   53.2180   52.5950 C.ar      1 BBH        -0.0584
     28 C16         8.0870   52.6480   52.7270 C.ar      1 BBH        -0.0685
     29 C18         8.4780   51.6760   51.7940 C.ar      1 BBH        -0.0687
     30 H1          4.4532   49.5482   55.9780 H         1 BBH         0.0608
     31 H2          3.4680   48.8230   58.1763 H         1 BBH         0.0542
     32 H3          0.7053   46.3327   56.0104 H         1 BBH         0.0542
     33 H4          1.6203   47.0842   53.8262 H         1 BBH         0.0608
     34 H5          1.4411   46.9555   60.3377 H         1 BBH         0.0577
     35 H6          2.0105   48.5279   59.6819 H         1 BBH         0.0577
     36 H7          3.0854   47.0898   59.6272 H         1 BBH         0.0577
     37 H8          1.8013   48.9128   51.4923 H         1 BBH         0.0782
     38 H9          0.6729   51.0603   50.3693 H         1 BBH         0.0547
     39 H10         2.2044   50.3286   49.7811 H         1 BBH         0.0547
     40 H11         4.5647   51.4079   53.3082 H         1 BBH         0.0748
     41 H12         2.9233   51.9976   53.7383 H         1 BBH         0.0748
     42 H13        -0.1115   48.1937   52.3277 H         1 BBH         0.2217
     43 H14        -1.3559   49.4284   54.3702 H         1 BBH         0.2490
     44 H15         4.4389   54.2283   52.1831 H         1 BBH         0.0686
     45 H16         4.4005   53.7958   50.4401 H         1 BBH         0.0686
     46 H17         7.9345   50.5003   50.0587 H         1 BBH         0.0599
     47 H18         5.6813   51.4968   49.8910 H         1 BBH         0.0557
     48 H19         6.4944   53.9886   53.2885 H         1 BBH         0.0557
     49 H20         8.7520   52.9506   53.5278 H         1 BBH         0.0599
     50 H21         9.4675   51.2394   51.8671 H         1 BBH         0.0559
@<TRIPOS>BOND
     1    1    2 ar 
     2    1    6 ar 
     3    9    1 1  
     4    2    3 ar 
     5    3    4 ar 
     6    5    4 ar 
     7    4    7 1  
     8    6    5 ar 
     9    7    8 1  
    10    9   10 2  
    11    9   11 2  
    12   12    9 am 
    13   12   13 1  
    14   17   12 1  
    15   14   13 1  
    16   13   19 1  
    17   15   14 1  
    18   16   15 am 
    19   15   18 2  
    20   16   17 1  
    21   23   16 1  
    22   19   20 am 
    23   19   22 2  
    24   20   21 1  
    25   26   23 1  
    26   25   24 ar 
    27   26   25 ar 
    28   26   27 ar 
    29   27   28 ar 
    30   28   29 ar 
    31   29   24 ar 
    32    2   30 1  
    33    3   31 1  
    34    5   32 1  
    35    6   33 1  
    36    8   34 1  
    37    8   35 1  
    38    8   36 1  
    39   13   37 1  
    40   14   38 1  
    41   14   39 1  
    42   17   40 1  
    43   17   41 1  
    44   20   42 1  
    45   21   43 1  
    46   23   44 1  
    47   23   45 1  
    48   24   46 1  
    49   25   47 1  
    50   27   48 1  
    51   28   49 1  
    52   29   50 1  
@<TRIPOS>SUBSTRUCTURE
     1 BBH         1

