### 
### Created by X-TOOL on Mon Sep 10 21:12:47 2018
### 

@<TRIPOS>MOLECULE
1g1d_ligand
   34    35     1     0     0
SMALL
GAST_HUCK


@<TRIPOS>ATOM
      1 C01        -3.7770    3.4750   14.6520 C.ar      1 FSB        -0.0401
      2 C02        -4.1640    2.3370   15.3930 C.ar      1 FSB        -0.0295
      3 C03        -5.5100    2.3030   15.9000 C.ar      1 FSB         0.1122
      4 C04        -6.3580    3.3960   15.6260 C.ar      1 FSB        -0.0295
      5 C05        -5.9290    4.4990   14.8870 C.ar      1 FSB        -0.0401
      6 C06        -4.6510    4.5480   14.4000 C.ar      1 FSB         0.0501
      7 C07        -4.1740    5.7490   13.6070 C.2       1 FSB         0.2067
      8 O08        -4.9430    6.6650   13.4080 O.2       1 FSB        -0.3845
      9 N09        -2.8750    5.8030   13.1240 N.am      1 FSB        -0.2754
     10 C10        -2.2400    6.8750   12.3690 C.3       1 FSB         0.0648
     11 S11        -6.0010    0.8300   16.8530 S.o2      1 FSB         0.0677
     12 NP2        -5.5180   -0.5040   16.1790 N.am      1 FSB        -0.2605
     13 O13        -7.4810    1.0890   16.8920 O.2       1 FSB        -0.1499
     14 O14        -5.4670    1.1300   18.1860 O.2       1 FSB        -0.1499
     15 C15        -1.6360    7.9150   13.1600 C.ar      1 FSB         0.0127
     16 C16        -1.9500    7.9620   14.5610 C.ar      1 FSB        -0.0601
     17 C17        -1.4150    8.9460   15.4290 C.ar      1 FSB        -0.0725
     18 C18        -0.5420    9.9090   14.8880 C.ar      1 FSB        -0.0706
     19 C19        -0.1920    9.9030   13.4860 C.ar      1 FSB        -0.0348
     20 C20        -0.7490    8.8880   12.6030 C.ar      1 FSB         0.1350
     21 F21        -0.4360    8.8680   11.3000 F         1 FSB        -0.1890
     22 H1         -2.7667    3.5237   14.2620 H         1 FSB         0.0670
     23 H2         -3.4738    1.5207   15.5729 H         1 FSB         0.0649
     24 H3         -7.3748    3.3787   16.0012 H         1 FSB         0.0649
     25 H4         -6.6107    5.3203   14.6979 H         1 FSB         0.0670
     26 H5         -2.3026    5.0064   13.3183 H         1 FSB         0.1871
     27 H6         -3.0049    7.3375   11.7279 H         1 FSB         0.0675
     28 H7         -1.4557    6.4284   11.7402 H         1 FSB         0.0675
     29 H8         -5.7257   -1.3839   16.6064 H         1 FSB         0.1635
     30 H9         -5.0028   -0.4734   15.3225 H         1 FSB         0.1635
     31 H10        -2.6220    7.2161   14.9699 H         1 FSB         0.0546
     32 H11        -1.6712    8.9570   16.4822 H         1 FSB         0.0565
     33 H12        -0.1239   10.6705   15.5364 H         1 FSB         0.0549
     34 H13         0.4843   10.6531   13.0922 H         1 FSB         0.0585
@<TRIPOS>BOND
     1    1    6 ar 
     2    1    2 ar 
     3    2    3 ar 
     4    3   11 1  
     5    3    4 ar 
     6    4    5 ar 
     7    5    6 ar 
     8    6    7 1  
     9    7    9 am 
    10    7    8 2  
    11    9   10 1  
    12   10   15 1  
    13   15   20 ar 
    14   15   16 ar 
    15   16   17 ar 
    16   17   18 ar 
    17   18   19 ar 
    18   19   20 ar 
    19   11   14 2  
    20   11   13 2  
    21   11   12 am 
    22   20   21 1  
    23    1   22 1  
    24    2   23 1  
    25    4   24 1  
    26    5   25 1  
    27    9   26 1  
    28   10   27 1  
    29   10   28 1  
    30   12   29 1  
    31   12   30 1  
    32   16   31 1  
    33   17   32 1  
    34   18   33 1  
    35   19   34 1  
@<TRIPOS>SUBSTRUCTURE
     1 FSB         1

