### 
### Created by X-TOOL on Mon Sep 10 21:12:48 2018
### 

@<TRIPOS>MOLECULE
1g27_ligand
   54    53     1     0     0
SMALL
GAST_HUCK


@<TRIPOS>ATOM
      1 C2         42.9860    4.0800   14.1010 C.3       1 BB1         0.0826
      2 C3         44.0920    5.1250   14.0770 C.3       1 BB1         0.0718
      3 C4         44.0940    5.8880   12.7890 C.2       1 BB1         0.1834
      4 O3         44.0530    5.2760   11.7210 O.2       1 BB1        -0.3966
      5 N2         44.2840    7.2150   12.8890 N.am      1 BB1        -0.2648
      6 C5         44.4560    8.0710   11.7520 C.3       1 BB1         0.1357
      7 C7         45.5030    4.5930   14.4520 C.3       1 BB1        -0.0312
      8 C8         46.5220    5.7790   14.6060 C.3       1 BB1        -0.0509
      9 C9         47.9740    5.2550   14.5220 C.3       1 BB1        -0.0558
     10 C10        48.9550    6.2160   15.1830 C.3       1 BB1        -0.0653
     11 N1         42.7730    3.5910   15.4500 N.am      1 BB1        -0.1497
     12 C1         43.4050    2.5010   15.8730 C.2       1 BB1         0.1950
     13 O1         43.3330    2.1390   17.0500 O.2       1 BB1        -0.3830
     14 O2         42.1440    4.2460   16.4290 O.3       1 BB1        -0.2684
     15 C6         45.6780    8.9080   12.0840 C.2       1 BB1         0.2042
     16 N3         46.7860    9.0540   11.3330 N.am      1 BB1        -0.2774
     17 C16        47.8470    9.9050   11.8650 C.3       1 BB1         0.0223
     18 C15        46.9300    8.4250   10.0290 C.3       1 BB1         0.0223
     19 O4         45.6300    9.4560   13.1870 O.2       1 BB1        -0.3943
     20 C11        43.2340    8.8990   11.3480 C.3       1 BB1         0.0026
     21 C12        43.5900    9.7580   10.1250 C.3       1 BB1        -0.0558
     22 C13        42.7770    9.8300   12.4930 C.3       1 BB1        -0.0558
     23 C14        42.0820    7.9600   10.9920 C.3       1 BB1        -0.0558
     24 H1         42.0544    4.5314   13.7290 H         1 BB1         0.0581
     25 H2         43.2702    3.2383   13.4523 H         1 BB1         0.0581
     26 H3         43.8331    5.8502   14.8625 H         1 BB1         0.0559
     27 H4         44.3065    7.6250   13.8008 H         1 BB1         0.1883
     28 H5         44.6960    7.4373   10.8855 H         1 BB1         0.0805
     29 H6         45.8552    3.9151   13.6606 H         1 BB1         0.0293
     30 H7         45.4409    4.0448   15.4036 H         1 BB1         0.0293
     31 H8         46.3679    6.2653   15.5805 H         1 BB1         0.0267
     32 H9         46.3529    6.5092   13.8009 H         1 BB1         0.0267
     33 H10        48.2498    5.1348   13.4639 H         1 BB1         0.0263
     34 H11        48.0320    4.2806   15.0290 H         1 BB1         0.0263
     35 H12        49.9747    5.8110   15.1038 H         1 BB1         0.0230
     36 H13        48.6904    6.3381   16.2437 H         1 BB1         0.0230
     37 H14        48.9081    7.1924   14.6786 H         1 BB1         0.0230
     38 H15        43.9963    1.9177   15.1687 H         1 BB1         0.1560
     39 H16        42.1380    3.7106   17.2138 H         1 BB1         0.2496
     40 H17        48.6853    9.9339   11.1534 H         1 BB1         0.0486
     41 H18        48.1957    9.4988   12.8259 H         1 BB1         0.0486
     42 H19        47.4592   10.9232   12.0163 H         1 BB1         0.0486
     43 H20        46.0322    7.8290    9.8083 H         1 BB1         0.0486
     44 H21        47.8132    7.7694   10.0336 H         1 BB1         0.0486
     45 H22        47.0533    9.2010    9.2592 H         1 BB1         0.0486
     46 H23        42.7151   10.3558    9.8297 H         1 BB1         0.0237
     47 H24        43.8857    9.1042    9.2913 H         1 BB1         0.0237
     48 H25        44.4239   10.4290   10.3784 H         1 BB1         0.0237
     49 H26        42.5189    9.2263   13.3756 H         1 BB1         0.0237
     50 H27        41.8952   10.4028   12.1701 H         1 BB1         0.0237
     51 H28        43.5914   10.5237   12.7487 H         1 BB1         0.0237
     52 H29        41.8267    7.3447   11.8673 H         1 BB1         0.0237
     53 H30        42.3850    7.3068   10.1605 H         1 BB1         0.0237
     54 H31        41.2052    8.5526   10.6921 H         1 BB1         0.0237
@<TRIPOS>BOND
     1    1   11 1  
     2    1    2 1  
     3    2    7 1  
     4    2    3 1  
     5    3    5 am 
     6    3    4 2  
     7    5    6 1  
     8    6   20 1  
     9    6   15 1  
    10   15   19 2  
    11   15   16 am 
    12   16   18 1  
    13   16   17 1  
    14   20   23 1  
    15   20   22 1  
    16   20   21 1  
    17    7    8 1  
    18    8    9 1  
    19    9   10 1  
    20   11   14 1  
    21   11   12 am 
    22   12   13 2  
    23    1   24 1  
    24    1   25 1  
    25    2   26 1  
    26    5   27 1  
    27    6   28 1  
    28    7   29 1  
    29    7   30 1  
    30    8   31 1  
    31    8   32 1  
    32    9   33 1  
    33    9   34 1  
    34   10   35 1  
    35   10   36 1  
    36   10   37 1  
    37   12   38 1  
    38   14   39 1  
    39   17   40 1  
    40   17   41 1  
    41   17   42 1  
    42   18   43 1  
    43   18   44 1  
    44   18   45 1  
    45   21   46 1  
    46   21   47 1  
    47   21   48 1  
    48   22   49 1  
    49   22   50 1  
    50   22   51 1  
    51   23   52 1  
    52   23   53 1  
    53   23   54 1  
@<TRIPOS>SUBSTRUCTURE
     1 BB1         1

