### 
### Created by X-TOOL on Mon Sep 10 21:12:48 2018
### 

@<TRIPOS>MOLECULE
1g2a_ligand
   62    62     1     0     0
SMALL
GAST_HUCK


@<TRIPOS>ATOM
      1 C5         42.4640    3.5630   14.5930 C.3       1 BB2         0.0585
      2 C3         42.2320    3.0330   16.0140 C.2       1 BB2         0.2013
      3 O4         41.2580    3.5170   16.6180 O.2       1 BB2        -0.3968
      4 N1         42.8500    1.9350   16.4260 N.am      1 BB2        -0.1641
      5 O2         42.7700    1.4900   17.5700 O.3       1 BB2        -0.2717
      6 C6         43.3060    4.8970   14.6740 C.3       1 BB2         0.0654
      7 C12        43.4070    5.6930   13.3660 C.2       1 BB2         0.1836
      8 O13        43.2940    5.1690   12.2660 O.2       1 BB2        -0.3965
      9 C7         44.7560    4.3510   14.9070 C.3       1 BB2        -0.0311
     10 C8         45.7250    5.5210   15.1510 C.3       1 BB2        -0.0506
     11 C9         47.1440    5.0270   15.4050 C.3       1 BB2        -0.0532
     12 C10        48.0630    6.1120   15.9640 C.3       1 BB2        -0.0559
     13 C11        48.2490    7.2670   15.0410 C.3       1 BB2        -0.0653
     14 N14        43.3670    7.0010   13.5050 N.am      1 BB2        -0.2650
     15 C15        43.6770    7.9330   12.4360 C.3       1 BB2         0.1332
     16 C16        42.4910    8.8180   12.0470 C.3       1 BB2        -0.0063
     17 C18        41.8520    9.4370   13.2720 C.3       1 BB2        -0.0584
     18 C17        41.4970    7.9190   11.3110 C.3       1 BB2        -0.0584
     19 C19        44.8490    8.7940   12.9120 C.2       1 BB2         0.2047
     20 O20        44.9400    9.1160   14.0910 O.2       1 BB2        -0.3943
     21 N21        45.7120    9.1780   11.9970 N.am      1 BB2        -0.2661
     22 C22        46.8910    9.9700   12.3090 C.3       1 BB2         0.0681
     23 C23        45.6620    8.7700   10.5660 C.3       1 BB2         0.0344
     24 C24        46.8650    9.4690    9.9800 C.3       1 BB2        -0.0303
     25 C25        47.8080    9.6480   11.1280 C.3       1 BB2        -0.0257
     26 C26        46.6350   11.4650   12.4260 C.3       1 BB2         0.0673
     27 O27        47.5670   12.1760   12.9050 O.3       1 BB2        -0.3927
     28 H1         43.0149    2.8140   14.0052 H         1 BB2         0.0529
     29 H2         41.4957    3.7664   14.1124 H         1 BB2         0.0529
     30 H3         43.4152    1.4386   15.7671 H         1 BB2         0.2216
     31 H4         41.8628    1.2896   17.7679 H         1 BB2         0.2490
     32 H5         42.9463    5.5407   15.4903 H         1 BB2         0.0563
     33 H6         45.0805    3.7882   14.0194 H         1 BB2         0.0294
     34 H7         44.7588    3.6867   15.7837 H         1 BB2         0.0294
     35 H8         45.3830    6.0917   16.0270 H         1 BB2         0.0267
     36 H9         45.7270    6.1741   14.2659 H         1 BB2         0.0267
     37 H10        47.5650    4.6665   14.4548 H         1 BB2         0.0265
     38 H11        47.1025    4.1973   16.1260 H         1 BB2         0.0265
     39 H12        49.0477    5.6648   16.1648 H         1 BB2         0.0263
     40 H13        47.6305    6.4841   16.9045 H         1 BB2         0.0263
     41 H14        48.9187    8.0047   15.5071 H         1 BB2         0.0230
     42 H15        47.2742    7.7341   14.8371 H         1 BB2         0.0230
     43 H16        48.6914    6.9149   14.0975 H         1 BB2         0.0230
     44 H17        43.1088    7.3736   14.3964 H         1 BB2         0.1883
     45 H18        43.9832    7.3617   11.5473 H         1 BB2         0.0802
     46 H19        42.8313    9.6220   11.3779 H         1 BB2         0.0343
     47 H20        41.0041   10.0668   12.9646 H         1 BB2         0.0234
     48 H21        42.5939   10.0535   13.8007 H         1 BB2         0.0234
     49 H22        41.4936    8.6405   13.9407 H         1 BB2         0.0234
     50 H23        41.9834    7.4817   10.4266 H         1 BB2         0.0234
     51 H24        40.6283    8.5149   10.9946 H         1 BB2         0.0234
     52 H25        41.1643    7.1136   11.9823 H         1 BB2         0.0234
     53 H26        47.3380    9.6240   13.2526 H         1 BB2         0.0581
     54 H27        44.7324    9.1124   10.0880 H         1 BB2         0.0522
     55 H28        45.7475    7.6783   10.4614 H         1 BB2         0.0522
     56 H29        47.3255    8.8521    9.1943 H         1 BB2         0.0285
     57 H30        46.5784   10.4443    9.5597 H         1 BB2         0.0285
     58 H31        48.3774    8.7255   11.3145 H         1 BB2         0.0289
     59 H32        48.5053   10.4769   10.9363 H         1 BB2         0.0289
     60 H33        45.7522   11.6003   13.0681 H         1 BB2         0.0580
     61 H34        46.4157   11.8432   11.4166 H         1 BB2         0.0580
     62 H35        47.7668   11.8825   13.7861 H         1 BB2         0.2095
@<TRIPOS>BOND
     1    1    6 1  
     2    1    2 1  
     3    2    4 am 
     4    2    3 2  
     5    4    5 1  
     6    6    9 1  
     7    6    7 1  
     8    7   14 am 
     9    7    8 2  
    10   14   15 1  
    11   15   19 1  
    12   15   16 1  
    13   16   18 1  
    14   16   17 1  
    15   19   21 am 
    16   19   20 2  
    17   21   23 1  
    18   21   22 1  
    19   22   26 1  
    20   22   25 1  
    21   25   24 1  
    22   24   23 1  
    23   26   27 1  
    24    9   10 1  
    25   10   11 1  
    26   11   12 1  
    27   12   13 1  
    28    1   28 1  
    29    1   29 1  
    30    4   30 1  
    31    5   31 1  
    32    6   32 1  
    33    9   33 1  
    34    9   34 1  
    35   10   35 1  
    36   10   36 1  
    37   11   37 1  
    38   11   38 1  
    39   12   39 1  
    40   12   40 1  
    41   13   41 1  
    42   13   42 1  
    43   13   43 1  
    44   14   44 1  
    45   15   45 1  
    46   16   46 1  
    47   17   47 1  
    48   17   48 1  
    49   17   49 1  
    50   18   50 1  
    51   18   51 1  
    52   18   52 1  
    53   22   53 1  
    54   23   54 1  
    55   23   55 1  
    56   24   56 1  
    57   24   57 1  
    58   25   58 1  
    59   25   59 1  
    60   26   60 1  
    61   26   61 1  
    62   27   62 1  
@<TRIPOS>SUBSTRUCTURE
     1 BB2         1

