### 
### Created by X-TOOL on Mon Sep 10 21:12:48 2018
### 

@<TRIPOS>MOLECULE
1g2k_ligand
   82    86     1     0     0
SMALL
GAST_HUCK


@<TRIPOS>ATOM
      1 N01        11.3490   23.7090    5.9420 N.am      1 NM1        -0.2024
      2 S02        11.8060   22.2030    6.4460 S.o2      1 NM1         0.1248
      3 N03        13.4310   22.2920    6.2150 N.am      1 NM1        -0.2024
      4 C04        13.8510   22.2230    4.7960 C.3       1 NM1         0.1002
      5 C05        14.0220   23.6050    4.1440 C.3       1 NM1         0.1054
      6 C06        13.0480   24.6790    4.6150 C.3       1 NM1         0.1054
      7 C07        11.5560   24.3030    4.6100 C.3       1 NM1         0.1002
      8 C08        10.1700   24.1890    6.5190 C.3       1 NM1         0.0659
      9 C09         9.8920   25.4570    7.2180 C.ar      1 NM1        -0.0189
     10 C10         8.8250   26.2930    6.8150 C.ar      1 NM1        -0.0391
     11 C11         8.6000   27.5210    7.4900 C.ar      1 NM1         0.0432
     12 C12         9.4560   27.9140    8.5820 C.ar      1 NM1        -0.0489
     13 C13        10.5270   27.0760    8.9870 C.ar      1 NM1        -0.0629
     14 C14        10.7450   25.8490    8.3020 C.ar      1 NM1        -0.0545
     15 O15        11.2360   21.1560    5.5990 O.2       1 NM1        -0.1349
     16 O16        14.8540   20.3500    3.5600 O.3       1 NM1        -0.3160
     17 C17        15.8640   19.4590    3.2220 C.ar      1 NM1         0.0912
     18 C18        16.8400   19.0170    4.1900 C.ar      1 NM1        -0.0331
     19 C19        17.8750   18.0980    3.8300 C.ar      1 NM1        -0.0706
     20 C20        17.9430   17.6050    2.4890 C.ar      1 NM1        -0.0729
     21 C21        16.9850   18.0300    1.5170 C.ar      1 NM1        -0.0706
     22 C22        15.9540   18.9530    1.8850 C.ar      1 NM1        -0.0331
     23 C23        14.2710   22.8980    7.3060 C.3       1 NM1         0.0650
     24 C24        15.2130   22.0330    8.1100 C.ar      1 NM1        -0.0243
     25 C25        14.6980   21.1220    9.0830 C.ar      1 NM1        -0.0588
     26 C26        15.5880   20.2940    9.8420 C.ar      1 NM1        -0.0685
     27 C27        17.0050   20.3790    9.6260 C.ar      1 NM1        -0.0687
     28 C28        17.5310   21.2940    8.6530 C.ar      1 NM1        -0.0685
     29 C29        16.6340   22.1150    7.9010 C.ar      1 NM1        -0.0588
     30 O30        15.3200   24.1020    4.3950 O.3       1 NM1        -0.3872
     31 O31        13.2740   25.8320    3.8140 O.3       1 NM1        -0.3872
     32 C32        10.9130   23.4660    3.4700 C.3       1 NM1         0.0929
     33 O33         9.4720   23.5050    3.6580 O.3       1 NM1        -0.3160
     34 C34         8.6610   24.4010    3.0030 C.ar      1 NM1         0.0912
     35 C35         9.1160   25.7120    2.6050 C.ar      1 NM1        -0.0331
     36 C36         8.2440   26.6180    1.9330 C.ar      1 NM1        -0.0706
     37 C37         6.9000   26.2300    1.6530 C.ar      1 NM1        -0.0729
     38 C38         6.4320   24.9430    2.0370 C.ar      1 NM1        -0.0706
     39 C39         7.3130   24.0330    2.7070 C.ar      1 NM1        -0.0331
     40 O40        11.5840   22.1020    7.8880 O.2       1 NM1        -0.1349
     41 C41        15.0820   21.3320    4.6000 C.3       1 NM1         0.0929
     42 C51         7.4870   28.4170    7.0500 C.2       1 NM1         0.2031
     43 O52         7.6600   29.6620    7.0840 O.2       1 NM1        -0.3847
     44 N53         6.2900   27.8680    6.6330 N.am      1 NM1        -0.2893
     45 C54         5.2360   28.7840    6.2470 C.3       1 NM1         0.0191
     46 H1         13.0265   21.7326    4.2577 H         1 NM1         0.0570
     47 H2         13.8883   23.4755    3.0599 H         1 NM1         0.0640
     48 H3         13.3079   24.9214    5.6560 H         1 NM1         0.0640
     49 H4         11.0086   25.2567    4.5806 H         1 NM1         0.0570
     50 H5          9.8999   23.4161    7.2536 H         1 NM1         0.0642
     51 H6          9.4454   24.1776    5.6914 H         1 NM1         0.0642
     52 H7          8.1818   25.9972    5.9941 H         1 NM1         0.0608
     53 H8          9.2807   28.8526    9.0951 H         1 NM1         0.0611
     54 H9         11.1712   27.3676    9.8086 H         1 NM1         0.0611
     55 H10        11.5632   25.2043    8.6019 H         1 NM1         0.0593
     56 H11        16.7873   19.3881    5.2071 H         1 NM1         0.0542
     57 H12        18.6021   17.7777    4.5674 H         1 NM1         0.0589
     58 H13        18.7235   16.9069    2.2090 H         1 NM1         0.0523
     59 H14        17.0390   17.6538    0.5018 H         1 NM1         0.0589
     60 H15        15.2323   19.2730    1.1422 H         1 NM1         0.0542
     61 H16        13.5749   23.3585    8.0225 H         1 NM1         0.0642
     62 H17        14.8840   23.6808    6.8355 H         1 NM1         0.0642
     63 H18        13.6286   21.0569    9.2479 H         1 NM1         0.0557
     64 H19        15.1919   19.6042   10.5784 H         1 NM1         0.0599
     65 H20        17.6784   19.7514   10.1984 H         1 NM1         0.0559
     66 H21        18.6005   21.3620    8.4896 H         1 NM1         0.0599
     67 H22        17.0288   22.8066    7.1656 H         1 NM1         0.0557
     68 H23        15.4153   24.9553    3.9884 H         1 NM1         0.2100
     69 H24        14.1717   26.1223    3.9250 H         1 NM1         0.2100
     70 H25        11.2701   22.4268    3.5198 H         1 NM1         0.0634
     71 H26        11.1760   23.8977    2.4930 H         1 NM1         0.0634
     72 H27        10.1352   26.0119    2.8202 H         1 NM1         0.0542
     73 H28         8.6008   27.5976    1.6361 H         1 NM1         0.0589
     74 H29         6.2334   26.9182    1.1460 H         1 NM1         0.0523
     75 H30         5.4102   24.6509    1.8231 H         1 NM1         0.0589
     76 H31         6.9515   23.0519    2.9931 H         1 NM1         0.0542
     77 H32        15.3028   20.8114    5.5435 H         1 NM1         0.0634
     78 H33        15.9396   21.9608    4.3187 H         1 NM1         0.0634
     79 H34         6.1563   26.8776    6.5989 H         1 NM1         0.1841
     80 H35         4.3478   28.2124    5.9398 H         1 NM1         0.0483
     81 H36         5.5800   29.4061    5.4076 H         1 NM1         0.0483
     82 H37         4.9798   29.4289    7.1005 H         1 NM1         0.0483
@<TRIPOS>BOND
     1    1    8 1  
     2    1    7 1  
     3    1    2 am 
     4    2   40 2  
     5    2   15 2  
     6    2    3 am 
     7    3   23 1  
     8    3    4 1  
     9    4   41 1  
    10    4    5 1  
    11    5   30 1  
    12    5    6 1  
    13    6   31 1  
    14    6    7 1  
    15    7   32 1  
    16   32   33 1  
    17   33   34 1  
    18   34   39 ar 
    19   34   35 ar 
    20   35   36 ar 
    21   36   37 ar 
    22   37   38 ar 
    23   38   39 ar 
    24   41   16 1  
    25   16   17 1  
    26   17   22 ar 
    27   17   18 ar 
    28   18   19 ar 
    29   19   20 ar 
    30   20   21 ar 
    31   21   22 ar 
    32   23   24 1  
    33   24   29 ar 
    34   24   25 ar 
    35   25   26 ar 
    36   26   27 ar 
    37   27   28 ar 
    38   28   29 ar 
    39    8    9 1  
    40    9   14 ar 
    41    9   10 ar 
    42   10   11 ar 
    43   11   42 1  
    44   11   12 ar 
    45   12   13 ar 
    46   13   14 ar 
    47   42   44 am 
    48   42   43 2  
    49   44   45 1  
    50    4   46 1  
    51    5   47 1  
    52    6   48 1  
    53    7   49 1  
    54    8   50 1  
    55    8   51 1  
    56   10   52 1  
    57   12   53 1  
    58   13   54 1  
    59   14   55 1  
    60   18   56 1  
    61   19   57 1  
    62   20   58 1  
    63   21   59 1  
    64   22   60 1  
    65   23   61 1  
    66   23   62 1  
    67   25   63 1  
    68   26   64 1  
    69   27   65 1  
    70   28   66 1  
    71   29   67 1  
    72   30   68 1  
    73   31   69 1  
    74   32   70 1  
    75   32   71 1  
    76   35   72 1  
    77   36   73 1  
    78   37   74 1  
    79   38   75 1  
    80   39   76 1  
    81   41   77 1  
    82   41   78 1  
    83   44   79 1  
    84   45   80 1  
    85   45   81 1  
    86   45   82 1  
@<TRIPOS>SUBSTRUCTURE
     1 NM1         1

