### 
### Created by X-TOOL on Mon Sep 10 21:12:48 2018
### 

@<TRIPOS>MOLECULE
1g2l_ligand
   71    75     1     0     0
SMALL
GAST_HUCK


@<TRIPOS>ATOM
      1 N1          9.8050    6.1680   27.8830 N.pl3     1 T87        -0.2736
      2 N2         11.8030    6.9570   27.5440 N.pl3     1 T87        -0.2736
      3 C1         10.5600    6.9200   27.0920 C.cat     1 T87         0.2283
      4 C2         10.0700    7.6550   25.9890 C.ar      1 T87         0.0122
      5 C3          8.6340    7.6730   25.6770 C.ar      1 T87        -0.0685
      6 C4          8.1090    8.4200   24.5770 C.ar      1 T87        -0.0444
      7 C5          8.9980    9.1980   23.7180 C.ar      1 T87         0.0403
      8 C6         10.4200    9.2060   23.9840 C.ar      1 T87        -0.0444
      9 C7         10.9520    8.4510   25.0980 C.ar      1 T87        -0.0685
     10 N           8.5040    9.9850   22.5870 N.pl3     1 T87        -0.3029
     11 C           7.2940    9.7650   21.7210 C.3       1 T87         0.1078
     12 N3          6.5370    7.3620   21.6010 N.2       1 T87        -0.3070
     13 C8          7.2580    8.3960   20.9890 C.2       1 T87         0.1515
     14 N9          7.9360    8.1760   19.7600 N.pl3     1 T87        -0.2215
     15 C3A         7.5930    6.8280   19.5870 C.ar      1 T87         0.1030
     16 C7A         6.7510    6.3530   20.7000 C.ar      1 T87         0.0452
     17 C10         7.9540    5.9060   18.5060 C.ar      1 T87        -0.0226
     18 C11         7.4880    4.5630   18.5500 C.ar      1 T87        -0.0691
     19 C12         6.6460    4.0400   19.6450 C.ar      1 T87        -0.0944
     20 C13         6.2730    4.9700   20.7330 C.ar      1 T87        -0.0528
     21 C14         8.7750    9.0870   18.9000 C.3       1 T87         0.0503
     22 C9          5.1230    1.9340   20.5190 C.3       1 T87        -0.1039
     23 C15         6.5230    1.7830   21.0980 C.3       1 T87        -0.1039
     24 C16         6.3350    2.4540   19.7270 C.3       1 T87        -0.0336
     25 C17         6.2810    1.8540   18.2440 C.2       1 T87         0.0743
     26 N4          5.2320    2.0200   17.4660 N.2       1 T87        -0.0578
     27 N5          7.3590    0.4090   16.3680 N.ar      1 T87        -0.2940
     28 C18         7.5180    1.1090   17.6200 C.ar      1 T87         0.0567
     29 C19         8.8280    1.1140   18.2460 C.ar      1 T87        -0.0283
     30 C20         9.9220    0.4210   17.6060 C.ar      1 T87        -0.0434
     31 C21         9.7490   -0.2790   16.3560 C.ar      1 T87        -0.0357
     32 C22         8.4590   -0.2850   15.7310 C.ar      1 T87         0.0082
     33 OH          4.0020    2.7470   17.8900 O.3       1 T87        -0.1448
     34 C23         3.3470    3.3120   16.7420 C.3       1 T87         0.2196
     35 C24         3.9830    4.6760   16.3910 C.2       1 T87         0.2735
     36 O2          4.4680    4.8320   15.2560 O.2       1 T87        -0.3667
     37 O3          3.9950    5.6840   17.3550 O.3       1 T87        -0.2746
     38 C25         4.3250    8.0300   17.9380 C.3       1 T87        -0.0371
     39 C26         4.6150    6.9140   16.9160 C.3       1 T87         0.0741
     40 H1         10.2316    5.6590   28.6703 H         1 T87         0.3179
     41 H2          8.7924    6.0934   27.7096 H         1 T87         0.3179
     42 H3         12.5181    7.5011   27.0405 H         1 T87         0.3179
     43 H4         12.0555    6.4417   28.3994 H         1 T87         0.3179
     44 H5          7.9531    7.1033   26.2990 H         1 T87         0.0582
     45 H6          7.0433    8.4090   24.3789 H         1 T87         0.0515
     46 H7         11.0870    9.7776   23.3488 H         1 T87         0.0515
     47 H8         12.0194    8.4668   25.2865 H         1 T87         0.0582
     48 H9          9.0690   10.8126   22.3487 H         1 T87         0.1792
     49 H10         7.2676   10.5601   20.9613 H         1 T87         0.0789
     50 H11         6.3998    9.8363   22.3577 H         1 T87         0.0789
     51 H12         8.5702    6.2446   17.6810 H         1 T87         0.0604
     52 H13         7.7632    3.8930   17.7435 H         1 T87         0.0658
     53 H14         5.6486    4.6289   21.5509 H         1 T87         0.0732
     54 H15         8.8223   10.0849   19.3604 H         1 T87         0.0574
     55 H16         8.3236    9.1657   17.9000 H         1 T87         0.0574
     56 H17         9.7912    8.6752   18.8122 H         1 T87         0.0574
     57 H18         4.4159    2.6454   20.9705 H         1 T87         0.0084
     58 H19         4.5761    1.0472   20.1663 H         1 T87         0.0084
     59 H20         6.9858    0.7872   21.1630 H         1 T87         0.0084
     60 H21         6.8256    2.3854   21.9672 H         1 T87         0.0084
     61 H22         8.9837    1.6329   19.1849 H         1 T87         0.0706
     62 H23        10.8983    0.4269   18.0770 H         1 T87         0.0731
     63 H24        10.5843   -0.7939   15.8953 H         1 T87         0.0696
     64 H25         8.3084   -0.8037   14.7912 H         1 T87         0.0822
     65 H26         2.2792    3.4541   16.9646 H         1 T87         0.0972
     66 H27         3.4555    2.6284   15.8871 H         1 T87         0.0972
     67 H28         4.7971    8.9654   17.6032 H         1 T87         0.0255
     68 H29         4.7328    7.7441   18.9188 H         1 T87         0.0255
     69 H30         3.2381    8.1773   18.0216 H         1 T87         0.0255
     70 H31         4.2072    7.2003   15.9353 H         1 T87         0.0610
     71 H32         5.7019    6.7671   16.8325 H         1 T87         0.0610
@<TRIPOS>BOND
     1    3    1 ar 
     2    4    3 1  
     3    5    4 ar 
     4    9    4 ar 
     5    6    5 ar 
     6    7    6 ar 
     7    7    8 ar 
     8   10    7 1  
     9    8    9 ar 
    10   11   10 1  
    11   13   11 1  
    12   14   13 1  
    13   15   14 1  
    14   14   21 1  
    15   16   15 ar 
    16   17   15 ar 
    17   20   16 ar 
    18   18   17 ar 
    19   19   18 ar 
    20   19   20 ar 
    21   24   19 1  
    22   22   23 1  
    23   24   22 1  
    24   23   24 1  
    25   24   25 1  
    26   25   26 2  
    27   25   28 1  
    28   26   33 1  
    29   28   29 ar 
    30   29   30 ar 
    31   30   31 ar 
    32   31   32 ar 
    33   33   34 1  
    34   34   35 1  
    35   35   36 2  
    36   35   37 1  
    37   37   39 1  
    38   39   38 1  
    39   32   27 ar 
    40   28   27 ar 
    41   16   12 1  
    42   13   12 2  
    43    3    2 ar 
    44    1   40 1  
    45    1   41 1  
    46    2   42 1  
    47    2   43 1  
    48    5   44 1  
    49    6   45 1  
    50    8   46 1  
    51    9   47 1  
    52   10   48 1  
    53   11   49 1  
    54   11   50 1  
    55   17   51 1  
    56   18   52 1  
    57   20   53 1  
    58   21   54 1  
    59   21   55 1  
    60   21   56 1  
    61   22   57 1  
    62   22   58 1  
    63   23   59 1  
    64   23   60 1  
    65   29   61 1  
    66   30   62 1  
    67   31   63 1  
    68   32   64 1  
    69   34   65 1  
    70   34   66 1  
    71   38   67 1  
    72   38   68 1  
    73   38   69 1  
    74   39   70 1  
    75   39   71 1  
@<TRIPOS>SUBSTRUCTURE
     1 T87         1

