### 
### Created by X-TOOL on Mon Sep 10 21:12:48 2018
### 

@<TRIPOS>MOLECULE
1g2m_ligand
   58    62     1     0     0
SMALL
GAST_HUCK


@<TRIPOS>ATOM
      1 N1          9.7000    6.7980   28.7680 N.pl3     1 R11        -0.2736
      2 N2         11.8080    7.0250   28.3250 N.pl3     1 R11        -0.2736
      3 C1         10.5820    7.3010   27.9350 C.cat     1 R11         0.2283
      4 C2         10.2510    7.9840   26.7620 C.ar      1 R11         0.0122
      5 C3          8.9640    7.8230   26.1490 C.ar      1 R11        -0.0685
      6 C4          8.6240    8.5050   24.9700 C.ar      1 R11        -0.0444
      7 C5          9.5480    9.3740   24.3500 C.ar      1 R11         0.0402
      8 C6         10.8240    9.5610   24.9190 C.ar      1 R11        -0.0444
      9 C7         11.1760    8.8780   26.1080 C.ar      1 R11        -0.0685
     10 N           9.2190   10.0800   23.1410 N.pl3     1 R11        -0.3032
     11 C           8.0960    9.8080   22.2170 C.3       1 R11         0.1059
     12 N3          7.3150    7.4090   22.0080 N.2       1 R11        -0.3189
     13 C8          8.1120    8.4430   21.5040 C.2       1 R11         0.1434
     14 N9          8.9090    8.2310   20.3660 N.pl3     1 R11        -0.2369
     15 C3A         8.5710    6.9070   20.1230 C.ar      1 R11         0.0749
     16 C7A         7.6240    6.4220   21.1010 C.ar      1 R11         0.0139
     17 C10         9.0340    6.0380   19.0830 C.ar      1 R11        -0.0469
     18 C11         8.5510    4.7250   19.0270 C.ar      1 R11        -0.0713
     19 C12         7.6170    4.2350   19.9840 C.ar      1 R11        -0.0308
     20 C13         7.1450    5.0770   21.0300 C.ar      1 R11        -0.0626
     21 C14         9.8340    9.1410   19.6340 C.3       1 R11         0.0452
     22 C9          7.1210    2.7820   19.8620 C.3       1 R11         0.0847
     23 N4          7.4160    2.1430   18.5280 N.pl3     1 R11        -0.2226
     24 C15         6.6350    1.9760   17.3600 C.2       1 R11         0.1216
     25 N16         7.1380    1.3400   16.2260 N.2       1 R11        -0.3180
     26 C17         8.4020    1.0540   16.7010 C.ar      1 R11         0.0210
     27 C18         8.5730    1.5220   18.0610 C.ar      1 R11         0.0830
     28 C19         9.4750    0.3870   16.0260 C.ar      1 R11        -0.0656
     29 C20        10.6980    0.2000   16.7060 C.ar      1 R11        -0.0786
     30 C21        10.8730    0.6560   18.0350 C.ar      1 R11        -0.0766
     31 C22         9.8320    1.3180   18.7230 C.ar      1 R11        -0.0419
     32 C23         5.2040    2.4890   17.2880 C.3       1 R11         0.0185
     33 H1          8.6935    6.9318   28.5950 H         1 R11         0.3179
     34 H2         10.0148    6.2697   29.5942 H         1 R11         0.3179
     35 H3         12.6112    7.3544   27.7707 H         1 R11         0.3179
     36 H4         11.9645    6.4796   29.1846 H         1 R11         0.3179
     37 H5          8.2382    7.1602   26.6062 H         1 R11         0.0582
     38 H6          7.6428    8.3631   24.5315 H         1 R11         0.0515
     39 H7         11.5358   10.2279   24.4461 H         1 R11         0.0515
     40 H8         12.1604    9.0296   26.5359 H         1 R11         0.0582
     41 H9          9.8362   10.8653   22.8895 H         1 R11         0.1792
     42 H10         8.1021   10.5899   21.4433 H         1 R11         0.0784
     43 H11         7.1629    9.8723   22.7960 H         1 R11         0.0784
     44 H12         9.7488    6.3921   18.3490 H         1 R11         0.0529
     45 H13         8.8956    4.0668   18.2377 H         1 R11         0.0481
     46 H14         6.4350    4.7050   21.7598 H         1 R11         0.0463
     47 H15         9.8455   10.1250   20.1256 H         1 R11         0.0564
     48 H16         9.4910    9.2543   18.5950 H         1 R11         0.0564
     49 H17        10.8484    8.7158   19.6409 H         1 R11         0.0564
     50 H18         6.0319    2.7742   20.0159 H         1 R11         0.0745
     51 H19         7.6066    2.1837   20.6470 H         1 R11         0.0745
     52 H20         9.3500    0.0316   15.0096 H         1 R11         0.0535
     53 H21        11.5167   -0.3010   16.2023 H         1 R11         0.0516
     54 H22        11.8221    0.4943   18.5330 H         1 R11         0.0528
     55 H23         9.9811    1.6679   19.7381 H         1 R11         0.0541
     56 H24         4.7809    2.2576   16.2994 H         1 R11         0.0497
     57 H25         5.1965    3.5778   17.4443 H         1 R11         0.0497
     58 H26         4.6003    2.0024   18.0682 H         1 R11         0.0497
@<TRIPOS>BOND
     1    1    3 ar 
     2    3    2 ar 
     3    3    4 1  
     4    4    5 ar 
     5    4    9 ar 
     6    5    6 ar 
     7    6    7 ar 
     8    7    8 ar 
     9    7   10 1  
    10    8    9 ar 
    11   10   11 1  
    12   11   13 1  
    13   13   12 2  
    14   12   16 1  
    15   13   14 1  
    16   14   15 1  
    17   14   21 1  
    18   15   16 ar 
    19   15   17 ar 
    20   16   20 ar 
    21   17   18 ar 
    22   18   19 ar 
    23   19   20 ar 
    24   19   22 1  
    25   22   23 1  
    26   23   24 1  
    27   23   27 1  
    28   24   25 2  
    29   24   32 1  
    30   25   26 1  
    31   26   27 ar 
    32   26   28 ar 
    33   27   31 ar 
    34   28   29 ar 
    35   29   30 ar 
    36   30   31 ar 
    37    1   33 1  
    38    1   34 1  
    39    2   35 1  
    40    2   36 1  
    41    5   37 1  
    42    6   38 1  
    43    8   39 1  
    44    9   40 1  
    45   10   41 1  
    46   11   42 1  
    47   11   43 1  
    48   17   44 1  
    49   18   45 1  
    50   20   46 1  
    51   21   47 1  
    52   21   48 1  
    53   21   49 1  
    54   22   50 1  
    55   22   51 1  
    56   28   52 1  
    57   29   53 1  
    58   30   54 1  
    59   31   55 1  
    60   32   56 1  
    61   32   57 1  
    62   32   58 1  
@<TRIPOS>SUBSTRUCTURE
     1 R11         1

