### 
### Created by X-TOOL on Mon Sep 10 21:12:48 2018
### 

@<TRIPOS>MOLECULE
1g2o_ligand
   34    36     1     0     0
SMALL
GAST_HUCK


@<TRIPOS>ATOM
      1 O5'        55.2480   13.9450   43.5030 O.3       1 IMH        -0.3894
      2 C5'        55.0140   15.2780   43.9290 C.3       1 IMH         0.0894
      3 C4'        56.3320   15.9040   44.2220 C.3       1 IMH         0.0313
      4 N4'        57.1430   15.8500   43.0570 N.4       1 IMH         0.2435
      5 C3'        56.1460   17.3380   44.6070 C.3       1 IMH         0.1317
      6 O3'        57.0730   17.6270   45.6570 O.3       1 IMH        -0.3832
      7 C2'        56.4520   18.0500   43.3310 C.3       1 IMH         0.1327
      8 O2'        57.2500   19.1990   43.5950 O.3       1 IMH        -0.3821
      9 C1'        57.2120   17.0970   42.3780 C.3       1 IMH         0.0244
     10 C9         56.4490   16.8610   41.0640 C.2       1 IMH         0.0057
     11 C8         56.6880   15.8060   40.1790 C.2       1 IMH         0.0223
     12 N7         55.9180   15.7880   39.1160 N.pl3     1 IMH        -0.2895
     13 C5         55.0820   16.8970   39.2600 C.2       1 IMH         0.1348
     14 C6         54.0310   17.3800   38.3940 C.2       1 IMH         0.2413
     15 O6         53.6630   16.8910   37.3270 O.2       1 IMH        -0.4013
     16 N1         53.4000   18.5420   38.8760 N.am      1 IMH        -0.2067
     17 C2         53.7340   19.1900   40.0770 C.2       1 IMH         0.1146
     18 N3         54.7270   18.7390   40.9030 N.2       1 IMH        -0.3199
     19 C4         55.3770   17.5810   40.4460 C.2       1 IMH         0.0184
     20 H1         55.6932   13.4668   44.1927 H         1 IMH         0.2097
     21 H2         54.3914   15.2765   44.8359 H         1 IMH         0.0614
     22 H3         54.5022   15.8399   43.1338 H         1 IMH         0.0614
     23 H4         56.8224   15.3612   45.0435 H         1 IMH         0.0900
     24 H5         56.7593   15.1616   42.4286 H         1 IMH         0.2029
     25 H6         58.0754   15.5771   43.3256 H         1 IMH         0.2029
     26 H7         55.1200   17.5505   44.9417 H         1 IMH         0.0680
     27 H8         56.8251   17.1463   46.4379 H         1 IMH         0.2102
     28 H9         55.5107   18.3643   42.8566 H         1 IMH         0.0693
     29 H10        58.0656   18.9302   44.0013 H         1 IMH         0.2103
     30 H11        58.2409   17.4386   42.1920 H         1 IMH         0.0961
     31 H12        57.4559   15.0548   40.3580 H         1 IMH         0.0779
     32 H13        55.9283   15.1054   38.3447 H         1 IMH         0.2273
     33 H14        52.6628   18.9336   38.3254 H         1 IMH         0.2519
     34 H15        53.1819   20.0847   40.3610 H         1 IMH         0.1426
@<TRIPOS>BOND
     1    2    1 1  
     2    2    3 1  
     3    3    5 1  
     4    3    4 1  
     5    4    9 1  
     6    9   10 1  
     7    9    7 1  
     8    7    8 1  
     9    7    5 1  
    10    5    6 1  
    11   10   19 1  
    12   10   11 2  
    13   11   12 1  
    14   12   13 1  
    15   13   19 2  
    16   13   14 1  
    17   14   16 am 
    18   14   15 2  
    19   16   17 am 
    20   17   18 2  
    21   18   19 1  
    22    1   20 1  
    23    2   21 1  
    24    2   22 1  
    25    3   23 1  
    26    4   24 1  
    27    4   25 1  
    28    5   26 1  
    29    6   27 1  
    30    7   28 1  
    31    8   29 1  
    32    9   30 1  
    33   11   31 1  
    34   12   32 1  
    35   16   33 1  
    36   17   34 1  
@<TRIPOS>SUBSTRUCTURE
     1 IMH         1

