### 
### Created by X-TOOL on Mon Sep 10 21:12:48 2018
### 

@<TRIPOS>MOLECULE
1g32_ligand
   58    62     1     0     0
SMALL
GAST_HUCK


@<TRIPOS>ATOM
      1 N1         10.1660  -12.6970   23.8340 N.pl3     1 R11        -0.2736
      2 N2         10.8230  -10.7090   24.4120 N.pl3     1 R11        -0.2736
      3 C1         11.0710  -11.7560   23.6370 C.cat     1 R11         0.2283
      4 C2         12.0760  -11.8060   22.6420 C.ar      1 R11         0.0122
      5 C3         12.2170  -12.9390   21.7620 C.ar      1 R11        -0.0685
      6 C4         13.2200  -12.9870   20.7710 C.ar      1 R11        -0.0444
      7 C5         14.1190  -11.9080   20.6180 C.ar      1 R11         0.0402
      8 C6         14.0130  -10.7820   21.4600 C.ar      1 R11        -0.0444
      9 C7         13.0130  -10.7280   22.4530 C.ar      1 R11        -0.0685
     10 N          15.1590  -11.9140   19.6150 N.pl3     1 R11        -0.3032
     11 C          16.6070  -11.5930   19.7590 C.3       1 R11         0.1059
     12 N3         16.7710  -13.3400   21.5380 N.2       1 R11        -0.3189
     13 C8         17.4550  -12.5180   20.6530 C.2       1 R11         0.1434
     14 N9         18.8740  -12.5480   20.5970 N.pl3     1 R11        -0.2369
     15 C3A        19.0790  -13.5130   21.5770 C.ar      1 R11         0.0749
     16 C7A        17.8250  -13.9740   22.1300 C.ar      1 R11         0.0139
     17 C10        20.3100  -14.0490   22.0620 C.ar      1 R11        -0.0469
     18 C11        20.2710  -15.0180   23.0730 C.ar      1 R11        -0.0713
     19 C12        19.0360  -15.4790   23.6240 C.ar      1 R11        -0.0308
     20 C13        17.8040  -14.9660   23.1580 C.ar      1 R11        -0.0626
     21 C14        19.8590  -11.7950   19.7590 C.3       1 R11         0.0452
     22 C9         19.0640  -16.5290   24.7460 C.3       1 R11         0.0847
     23 N4         20.3380  -16.4640   25.5410 N.pl3     1 R11        -0.2226
     24 C15        21.3530  -17.4090   25.8040 C.2       1 R11         0.1216
     25 N16        22.4750  -17.0940   26.5840 N.2       1 R11        -0.3180
     26 C17        22.1430  -15.7810   26.8580 C.ar      1 R11         0.0210
     27 C18        20.8880  -15.4060   26.2450 C.ar      1 R11         0.0830
     28 C19        22.8680  -14.8260   27.6370 C.ar      1 R11        -0.0656
     29 C20        22.3250  -13.5250   27.7860 C.ar      1 R11        -0.0786
     30 C21        21.1070  -13.1530   27.1880 C.ar      1 R11        -0.0766
     31 C22        20.3730  -14.0790   26.4250 C.ar      1 R11        -0.0419
     32 C23        21.2740  -18.8190   25.2420 C.3       1 R11         0.0185
     33 H1          9.4646  -12.5887   24.5804 H         1 R11         0.3179
     34 H2         10.1614  -13.5393   23.2412 H         1 R11         0.3179
     35 H3         11.4405   -9.8853   24.3780 H         1 R11         0.3179
     36 H4         10.0129  -10.7194   25.0480 H         1 R11         0.3179
     37 H5         11.5350  -13.7754   21.8643 H         1 R11         0.0582
     38 H6         13.3011  -13.8540   20.1253 H         1 R11         0.0515
     39 H7         14.7031   -9.9542   21.3436 H         1 R11         0.0515
     40 H8         12.9477   -9.8534   23.0901 H         1 R11         0.0582
     41 H9         14.8567  -12.1774   18.6662 H         1 R11         0.1792
     42 H10        16.6796  -10.5768   20.1737 H         1 R11         0.0784
     43 H11        17.0502  -11.6108   18.7524 H         1 R11         0.0784
     44 H12        21.2570  -13.7126   21.6557 H         1 R11         0.0529
     45 H13        21.2019  -15.4287   23.4469 H         1 R11         0.0481
     46 H14        16.8652  -15.3170   23.5710 H         1 R11         0.0463
     47 H15        19.3209  -11.1094   19.0879 H         1 R11         0.0564
     48 H16        20.4500  -12.5045   19.1613 H         1 R11         0.0564
     49 H17        20.5300  -11.2175   20.4118 H         1 R11         0.0564
     50 H18        18.9742  -17.5300   24.2990 H         1 R11         0.0745
     51 H19        18.2139  -16.3513   25.4210 H         1 R11         0.0745
     52 H20        23.8105  -15.0905   28.1026 H         1 R11         0.0535
     53 H21        22.8644  -12.7949   28.3785 H         1 R11         0.0516
     54 H22        20.7311  -12.1444   27.3164 H         1 R11         0.0528
     55 H23        19.4280  -13.7930   25.9776 H         1 R11         0.0541
     56 H24        22.1572  -19.3913   25.5621 H         1 R11         0.0497
     57 H25        21.2443  -18.7747   24.1433 H         1 R11         0.0497
     58 H26        20.3635  -19.3115   25.6139 H         1 R11         0.0497
@<TRIPOS>BOND
     1    1    3 ar 
     2    3    4 1  
     3    4    5 ar 
     4    4    9 ar 
     5    5    6 ar 
     6    6    7 ar 
     7    7    8 ar 
     8    7   10 1  
     9    8    9 ar 
    10   10   11 1  
    11   11   13 1  
    12   13   14 1  
    13   14   15 1  
    14   14   21 1  
    15   15   16 ar 
    16   15   17 ar 
    17   16   20 ar 
    18   17   18 ar 
    19   18   19 ar 
    20   19   20 ar 
    21   19   22 1  
    22   22   23 1  
    23   23   24 1  
    24   23   27 1  
    25   24   25 2  
    26   24   32 1  
    27   25   26 1  
    28   26   27 ar 
    29   26   28 ar 
    30   27   31 ar 
    31   28   29 ar 
    32   29   30 ar 
    33   30   31 ar 
    34   16   12 1  
    35   13   12 2  
    36    3    2 ar 
    37    1   33 1  
    38    1   34 1  
    39    2   35 1  
    40    2   36 1  
    41    5   37 1  
    42    6   38 1  
    43    8   39 1  
    44    9   40 1  
    45   10   41 1  
    46   11   42 1  
    47   11   43 1  
    48   17   44 1  
    49   18   45 1  
    50   20   46 1  
    51   21   47 1  
    52   21   48 1  
    53   21   49 1  
    54   22   50 1  
    55   22   51 1  
    56   28   52 1  
    57   29   53 1  
    58   30   54 1  
    59   31   55 1  
    60   32   56 1  
    61   32   57 1  
    62   32   58 1  
@<TRIPOS>SUBSTRUCTURE
     1 R11         1

