### 
### Created by X-TOOL on Mon Sep 10 21:12:48 2018
### 

@<TRIPOS>MOLECULE
1g35_ligand
   85    89     1     0     0
SMALL
GAST_HUCK


@<TRIPOS>ATOM
      1 N01        11.5940   23.9220    6.1630 N.am      1 AHF        -0.2034
      2 S02        11.9410   22.2880    6.4770 S.o2      1 AHF         0.1247
      3 N03        13.6100   22.4220    6.2590 N.am      1 AHF        -0.2017
      4 C04        14.0230   22.3010    4.8410 C.3       1 AHF         0.1003
      5 C05        14.1580   23.7760    4.2980 C.3       1 AHF         0.1054
      6 C06        13.1870   24.8630    4.8690 C.3       1 AHF         0.1054
      7 C07        11.6810   24.6340    4.8560 C.3       1 AHF         0.1000
      8 C08        10.3120   24.2390    6.7270 C.3       1 AHF         0.0619
      9 C09         9.7360   25.4500    7.3510 C.ar      1 AHF        -0.0310
     10 C10         8.3410   25.7480    7.1780 C.ar      1 AHF        -0.0652
     11 C11         7.7670   26.9120    7.7710 C.ar      1 AHF        -0.0646
     12 C12         8.6140   27.8160    8.5670 C.ar      1 AHF        -0.0245
     13 C13        10.0490   27.5180    8.7510 C.ar      1 AHF        -0.0646
     14 C14        10.6010   26.3260    8.1350 C.ar      1 AHF        -0.0652
     15 O15        11.3080   21.4690    5.4610 O.2       1 AHF        -0.1349
     16 O16        15.0160   20.4680    3.5760 O.3       1 AHF        -0.3160
     17 C17        15.9550   19.4950    3.2610 C.ar      1 AHF         0.0912
     18 C18        16.1570   19.1200    1.8770 C.ar      1 AHF        -0.0331
     19 C19        17.1490   18.0940    1.5230 C.ar      1 AHF        -0.0706
     20 C20        17.9430   17.4410    2.5640 C.ar      1 AHF        -0.0729
     21 C21        17.7530   17.8010    3.9510 C.ar      1 AHF        -0.0706
     22 C22        16.7620   18.8250    4.3050 C.ar      1 AHF        -0.0331
     23 C23        14.5080   22.8020    7.4110 C.3       1 AHF         0.0673
     24 C24        15.4130   21.9020    8.1780 C.ar      1 AHF        -0.0194
     25 C25        14.8810   20.9530    9.1430 C.ar      1 AHF        -0.0526
     26 C26        15.8050   20.0760    9.9020 C.ar      1 AHF        -0.0471
     27 C27        17.2700   20.1600    9.6870 C.ar      1 AHF         0.0549
     28 C28        17.7940   21.1320    8.6980 C.ar      1 AHF        -0.0471
     29 C29        16.8630   21.9900    7.9570 C.ar      1 AHF        -0.0526
     30 O30        15.4240   24.3250    4.5120 O.3       1 AHF        -0.3872
     31 O31        13.4210   26.0160    4.1760 O.3       1 AHF        -0.3872
     32 C32        11.1270   23.8230    3.6070 C.3       1 AHF         0.0929
     33 O33         9.7070   23.7250    3.7470 O.3       1 AHF        -0.3160
     34 C34         8.7690   24.4600    3.1760 C.ar      1 AHF         0.0912
     35 C35         9.0910   25.5560    2.2410 C.ar      1 AHF        -0.0331
     36 C36         8.0400   26.3370    1.6340 C.ar      1 AHF        -0.0706
     37 C37         6.6590   26.0340    1.9530 C.ar      1 AHF        -0.0729
     38 C38         6.3380   24.9610    2.8700 C.ar      1 AHF        -0.0706
     39 C39         7.3950   24.1770    3.4790 C.ar      1 AHF        -0.0331
     40 O40        11.7370   22.0060    7.8330 O.2       1 AHF        -0.1349
     41 C41        15.3360   21.4790    4.6100 C.3       1 AHF         0.0929
     42 C42        18.1060   19.3720   10.3740 C.2       1 AHF         0.2578
     43 O43        17.7020   18.8050   11.5520 O.3       1 AHF        -0.2818
     44 O44        19.3410   19.1480    9.9160 O.2       1 AHF        -0.3602
     45 C45        18.5400   18.0000   12.2860 C.3       1 AHF         0.0645
     46 C46         8.1470   28.8530    9.1110 C.3       1 AHF         0.0751
     47 O47         7.6480   29.6750    8.1760 O.3       1 AHF        -0.3836
     48 H1         13.2190   21.7910    4.2902 H         1 AHF         0.0570
     49 H2         13.9828   23.7118    3.2140 H         1 AHF         0.0640
     50 H3         13.4704   25.0110    5.9215 H         1 AHF         0.0640
     51 H4         11.1391   25.5905    4.8933 H         1 AHF         0.0570
     52 H5         10.1883   23.4744    7.5081 H         1 AHF         0.0628
     53 H6          9.6183   24.0326    5.8987 H         1 AHF         0.0628
     54 H7          7.7186   25.0820    6.5913 H         1 AHF         0.0540
     55 H8          6.7136   27.1295    7.6363 H         1 AHF         0.0540
     56 H9         10.6787   28.1784    9.3361 H         1 AHF         0.0540
     57 H10        11.6513   26.0870    8.2565 H         1 AHF         0.0540
     58 H11        15.5740   19.5980    1.0981 H         1 AHF         0.0542
     59 H12        17.2929   17.8197    0.4842 H         1 AHF         0.0589
     60 H13        18.6739   16.6870    2.2951 H         1 AHF         0.0523
     61 H14        18.3385   17.3180    4.7250 H         1 AHF         0.0589
     62 H15        16.6195   19.0939    5.3454 H         1 AHF         0.0542
     63 H16        13.8338   23.2347    8.1648 H         1 AHF         0.0652
     64 H17        15.1641   23.5890    7.0109 H         1 AHF         0.0652
     65 H18        13.8115   20.8869    9.3071 H         1 AHF         0.0571
     66 H19        15.4065   19.3680   10.6196 H         1 AHF         0.0655
     67 H20        18.8611   21.2085    8.5230 H         1 AHF         0.0655
     68 H21        17.2507   22.6999    7.2353 H         1 AHF         0.0571
     69 H22        15.4469   25.2096    4.1664 H         1 AHF         0.2100
     70 H23        14.3260   26.2785    4.2967 H         1 AHF         0.2100
     71 H24        11.5716   22.8171    3.5864 H         1 AHF         0.0634
     72 H25        11.3759   24.3531    2.6758 H         1 AHF         0.0634
     73 H26        10.1265   25.7763    2.0081 H         1 AHF         0.0542
     74 H27         8.2806   27.1407    0.9476 H         1 AHF         0.0589
     75 H28         5.8620   26.6142    1.5023 H         1 AHF         0.0523
     76 H29         5.3021   24.7424    3.1027 H         1 AHF         0.0589
     77 H30         7.1467   23.3751    4.1649 H         1 AHF         0.0542
     78 H31        15.6454   20.9851    5.5429 H         1 AHF         0.0634
     79 H32        16.1427   22.1398    4.2599 H         1 AHF         0.0634
     80 H33        18.0170   17.6534   13.1895 H         1 AHF         0.0575
     81 H34        19.4348   18.5701   12.5763 H         1 AHF         0.0575
     82 H35        18.8388   17.1322   11.6797 H         1 AHF         0.0575
     83 H36         8.9484   29.3692    9.6599 H         1 AHF         0.0708
     84 H37         7.3473   28.5689    9.8109 H         1 AHF         0.0708
     85 H38         7.2985   30.4532    8.5940 H         1 AHF         0.2124
@<TRIPOS>BOND
     1    1    8 1  
     2    1    7 1  
     3    1    2 am 
     4    2   40 2  
     5    2   15 2  
     6    2    3 am 
     7    3   23 1  
     8    3    4 1  
     9    4   41 1  
    10    4    5 1  
    11    5   30 1  
    12    5    6 1  
    13    6   31 1  
    14    6    7 1  
    15    7   32 1  
    16   32   33 1  
    17   33   34 1  
    18   34   39 ar 
    19   34   35 ar 
    20   35   36 ar 
    21   36   37 ar 
    22   37   38 ar 
    23   38   39 ar 
    24   41   16 1  
    25   16   17 1  
    26   17   22 ar 
    27   17   18 ar 
    28   18   19 ar 
    29   19   20 ar 
    30   20   21 ar 
    31   21   22 ar 
    32   23   24 1  
    33   24   29 ar 
    34   24   25 ar 
    35   25   26 ar 
    36   26   27 ar 
    37   27   42 1  
    38   27   28 ar 
    39   28   29 ar 
    40   42   44 2  
    41   42   43 1  
    42   43   45 1  
    43    8    9 1  
    44    9   14 ar 
    45    9   10 ar 
    46   10   11 ar 
    47   11   12 ar 
    48   12   46 1  
    49   12   13 ar 
    50   13   14 ar 
    51   46   47 1  
    52    4   48 1  
    53    5   49 1  
    54    6   50 1  
    55    7   51 1  
    56    8   52 1  
    57    8   53 1  
    58   10   54 1  
    59   11   55 1  
    60   13   56 1  
    61   14   57 1  
    62   18   58 1  
    63   19   59 1  
    64   20   60 1  
    65   21   61 1  
    66   22   62 1  
    67   23   63 1  
    68   23   64 1  
    69   25   65 1  
    70   26   66 1  
    71   28   67 1  
    72   29   68 1  
    73   30   69 1  
    74   31   70 1  
    75   32   71 1  
    76   32   72 1  
    77   35   73 1  
    78   36   74 1  
    79   37   75 1  
    80   38   76 1  
    81   39   77 1  
    82   41   78 1  
    83   41   79 1  
    84   45   80 1  
    85   45   81 1  
    86   45   82 1  
    87   46   83 1  
    88   46   84 1  
    89   47   85 1  
@<TRIPOS>SUBSTRUCTURE
     1 AHF         1

