### 
### Created by X-TOOL on Mon Sep 10 21:12:48 2018
### 

@<TRIPOS>MOLECULE
1g37_ligand
   83    86     1     0     0
SMALL
GAST_HUCK


@<TRIPOS>ATOM
      1 N1         16.0210   18.4310   20.0150 N.am      1 110        -0.2768
      2 C1         14.7580   18.3600   19.2090 C.3       1 110         0.0892
      3 O3         15.1760   18.4440   16.0870 O.3       1 110        -0.2748
      4 C10        14.4860   19.0730   14.9610 C.3       1 110         0.0769
      5 C11        14.1900   18.1930   13.7360 C.3       1 110        -0.0252
      6 C9         15.5880   19.2470   17.1070 C.2       1 110         0.2652
      7 O2         16.7200   19.6940   17.2110 O.2       1 110        -0.3674
      8 C14        16.8810   17.3630   20.1200 C.2       1 110         0.2023
      9 O4         16.7540   16.3050   19.5070 O.2       1 110        -0.3945
     10 C17        20.2980   16.5300   21.0110 C.3       1 110        -0.0237
     11 C18        19.3970   15.4820   21.6280 C.3       1 110         0.0651
     12 N3         18.1720   16.2910   21.8980 N.am      1 110        -0.2458
     13 C15        18.0410   17.5100   21.0870 C.3       1 110         0.1340
     14 C16        19.3980   17.5540   20.3790 C.3       1 110        -0.0100
     15 C21        17.3820   14.7160   23.6320 C.3       1 110         0.1188
     16 C20        17.2250   15.9600   22.7880 C.2       1 110         0.2000
     17 S1         19.0400   12.6850   24.2360 S.o2      1 110         0.0532
     18 O6         17.8020   11.9510   24.3410 O.2       1 110        -0.1530
     19 O7         20.1800   12.1080   23.5450 O.2       1 110        -0.1530
     20 C24        21.8750   13.8860   25.6030 C.ar      1 110        -0.0587
     21 C23        20.5830   14.1980   26.0280 C.ar      1 110        -0.0204
     22 C22        19.4980   13.1740   25.9540 C.3       1 110         0.1183
     23 C26        20.2990   15.4910   26.4360 C.ar      1 110        -0.0587
     24 C27        21.2850   16.4620   26.4110 C.ar      1 110        -0.0685
     25 C28        22.5640   16.1410   25.9790 C.ar      1 110        -0.0687
     26 C29        22.8570   14.8490   25.5780 C.ar      1 110        -0.0685
     27 O5         16.2280   16.6520   22.9480 O.2       1 110        -0.3949
     28 C19        19.8110   14.9910   22.9910 C.3       1 110         0.0553
     29 N4         18.7180   14.1570   23.4830 N.am      1 110        -0.2157
     30 C12        13.5250   18.9730   12.5980 C.3       1 110        -0.0535
     31 C13        12.3370   18.2540   11.9660 C.3       1 110        -0.0652
     32 C2         13.4960   18.2500   20.0950 C.3       1 110        -0.0129
     33 C4         13.3300   16.7980   20.6550 C.3       1 110        -0.0428
     34 C5         11.9690   16.6810   21.3770 C.3       1 110        -0.0095
     35 C6         11.9170   17.7220   22.5360 C.3       1 110        -0.0244
     36 N2         10.6560   17.5970   23.2900 N.4       1 110         0.2207
     37 C7         12.1120   19.1710   21.9750 C.3       1 110        -0.0095
     38 C8         13.4740   19.2800   21.2530 C.3       1 110        -0.0428
     39 C3         14.6250   19.5520   18.2000 C.3       1 110         0.1778
     40 O1         13.3100   19.6690   17.5310 O.3       1 110        -0.3677
     41 H1         16.2447   19.2816   20.4909 H         1 110         0.1857
     42 H2         14.8147   17.4374   18.6128 H         1 110         0.0611
     43 H3         15.1073   19.9146   14.6210 H         1 110         0.0613
     44 H4         13.5241   19.4545   15.3341 H         1 110         0.0613
     45 H5         13.5196   17.3765   14.0423 H         1 110         0.0291
     46 H6         15.1369   17.7714   13.3679 H         1 110         0.0291
     47 H7         20.9456   16.0722   20.2487 H         1 110         0.0290
     48 H8         20.9204   16.9995   21.7870 H         1 110         0.0290
     49 H9         19.2326   14.6386   20.9413 H         1 110         0.0576
     50 H10        17.8893   18.4024   21.7120 H         1 110         0.0802
     51 H11        19.2671   17.3247   19.3112 H         1 110         0.0313
     52 H12        19.8409   18.5550   20.4875 H         1 110         0.0313
     53 H13        16.6405   13.9683   23.3142 H         1 110         0.0720
     54 H14        17.2141   14.9730   24.6883 H         1 110         0.0720
     55 H15        22.1071   12.8746   25.2894 H         1 110         0.0557
     56 H16        19.8345   12.2749   26.4910 H         1 110         0.0682
     57 H17        18.6035   13.5824   26.4470 H         1 110         0.0682
     58 H18        19.3011   15.7432   26.7760 H         1 110         0.0557
     59 H19        21.0581   17.4732   26.7289 H         1 110         0.0599
     60 H20        23.3346   16.9030   25.9555 H         1 110         0.0559
     61 H21        23.8574   14.5968   25.2452 H         1 110         0.0599
     62 H22        19.9732   15.8425   23.6682 H         1 110         0.0503
     63 H23        20.7358   14.4000   22.9169 H         1 110         0.0503
     64 H24        14.2771   19.1524   11.8156 H         1 110         0.0263
     65 H25        13.1742   19.9361   12.9972 H         1 110         0.0263
     66 H26        11.9174   18.8762   11.1617 H         1 110         0.0230
     67 H27        11.5671   18.0756   12.7311 H         1 110         0.0230
     68 H28        12.6699   17.2919   11.5494 H         1 110         0.0230
     69 H29        12.6287   18.4621   19.4525 H         1 110         0.0325
     70 H30        14.1421   16.5830   21.3651 H         1 110         0.0271
     71 H31        13.3685   16.0774   19.8248 H         1 110         0.0271
     72 H32        11.8553   15.6667   21.7872 H         1 110         0.0320
     73 H33        11.1553   16.8817   20.6645 H         1 110         0.0320
     74 H34        12.7471   17.5099   23.2259 H         1 110         0.0850
     75 H35        10.6406   18.2770   24.0340 H         1 110         0.1997
     76 H36        10.5884   16.6702   23.6805 H         1 110         0.1997
     77 H37         9.8770   17.7585   22.6711 H         1 110         0.1997
     78 H38        12.0820   19.8905   22.8065 H         1 110         0.0320
     79 H39        11.3039   19.3981   21.2642 H         1 110         0.0320
     80 H40        13.6007   20.2955   20.8497 H         1 110         0.0271
     81 H41        14.2880   19.0620   21.9600 H         1 110         0.0271
     82 H42        14.8687   20.4968   18.7078 H         1 110         0.0878
     83 H43        13.1019   18.8492   17.0986 H         1 110         0.2136
@<TRIPOS>BOND
     1    1    2 1  
     2    8    1 am 
     3    1   41 1  
     4    2   32 1  
     5    2   39 1  
     6    3    4 1  
     7    6    3 1  
     8    4    5 1  
     9    5   30 1  
    10    6    7 2  
    11   39    6 1  
    12    8    9 2  
    13   13    8 1  
    14   11   10 1  
    15   14   10 1  
    16   12   11 1  
    17   11   28 1  
    18   12   13 1  
    19   16   12 am 
    20   13   14 1  
    21   15   16 1  
    22   29   15 1  
    23   16   27 2  
    24   17   18 2  
    25   17   19 2  
    26   22   17 1  
    27   17   29 am 
    28   21   20 ar 
    29   20   26 ar 
    30   21   22 1  
    31   21   23 ar 
    32   23   24 ar 
    33   24   25 ar 
    34   25   26 ar 
    35   28   29 1  
    36   30   31 1  
    37   32   33 1  
    38   32   38 1  
    39   33   34 1  
    40   34   35 1  
    41   35   36 1  
    42   35   37 1  
    43    2   42 1  
    44    4   43 1  
    45   37   38 1  
    46   39   40 1  
    47    4   44 1  
    48    5   45 1  
    49    5   46 1  
    50   10   47 1  
    51   10   48 1  
    52   11   49 1  
    53   13   50 1  
    54   14   51 1  
    55   14   52 1  
    56   15   53 1  
    57   15   54 1  
    58   20   55 1  
    59   22   56 1  
    60   22   57 1  
    61   23   58 1  
    62   24   59 1  
    63   25   60 1  
    64   26   61 1  
    65   28   62 1  
    66   28   63 1  
    67   30   64 1  
    68   30   65 1  
    69   31   66 1  
    70   31   67 1  
    71   31   68 1  
    72   32   69 1  
    73   33   70 1  
    74   33   71 1  
    75   34   72 1  
    76   34   73 1  
    77   35   74 1  
    78   36   75 1  
    79   36   76 1  
    80   36   77 1  
    81   37   78 1  
    82   37   79 1  
    83   38   80 1  
    84   38   81 1  
    85   39   82 1  
    86   40   83 1  
@<TRIPOS>SUBSTRUCTURE
     1 110         1

