### 
### Created by X-TOOL on Mon Sep 10 21:12:48 2018
### 

@<TRIPOS>MOLECULE
1g3b_ligand
   30    30     1     0     0
SMALL
GAST_HUCK


@<TRIPOS>ATOM
      1 C1         44.1090   -2.9930   26.0760 C.ar      1 108         0.0236
      2 C2         43.2660   -3.5420   27.0310 C.ar      1 108        -0.0444
      3 C3         43.0600   -2.9090   28.2600 C.ar      1 108         0.0433
      4 C4         43.7190   -1.7020   28.5170 C.ar      1 108         0.1118
      5 C5         44.5590   -1.1660   27.5490 C.ar      1 108        -0.0230
      6 C6         44.7500   -1.8000   26.3490 C.ar      1 108        -0.0577
      7 C7         42.1620   -3.5280   29.2170 C.2       1 108         0.0152
      8 C8         44.3430   -3.6710   24.8260 C.cat     1 108         0.2315
      9 O1         43.6110   -0.9890   29.6540 O.3       1 108        -0.3239
     10 N1         44.8000   -2.9900   23.7840 N.pl3     1 108        -0.2732
     11 N2         44.1020   -4.9700   24.7200 N.pl3     1 108        -0.2732
     12 N          41.8780   -3.0520   30.3930 N.2       1 108        -0.3258
     13 CA         40.9480   -3.8090   31.2190 C.3       1 108         0.0654
     14 CB         41.6450   -5.0310   31.8120 C.3       1 108        -0.0402
     15 C          40.3980   -2.9300   32.3310 C.2       1 108         0.0488
     16 O          39.3270   -3.2390   32.8580 O.co2     1 108        -0.5678
     17 OXT        41.1050   -1.9020   32.6520 O.co2     1 108        -0.5678
     18 H1         42.7589   -4.4768   26.8208 H         1 108         0.0662
     19 H2         45.0716   -0.2314   27.7459 H         1 108         0.0564
     20 H3         45.4092   -1.3619   25.6083 H         1 108         0.0650
     21 H4         41.6887   -4.4650   28.9274 H         1 108         0.1078
     22 H5         42.7043   -0.7366   29.7833 H         1 108         0.2533
     23 H6         44.9687   -3.4704   22.8886 H         1 108         0.3180
     24 H7         44.9863   -1.9806   23.8700 H         1 108         0.3180
     25 H8         43.7471   -5.4958   25.5314 H         1 108         0.3180
     26 H9         44.2697   -5.4536   23.8262 H         1 108         0.3180
     27 H10        40.1120   -4.1487   30.5900 H         1 108         0.0591
     28 H11        40.9327   -5.5939   32.4332 H         1 108         0.0259
     29 H12        42.4934   -4.7046   32.4314 H         1 108         0.0259
     30 H13        42.0109   -5.6750   30.9988 H         1 108         0.0259
@<TRIPOS>BOND
     1    1    8 1  
     2    1    6 ar 
     3    1    2 ar 
     4    2    3 ar 
     5    3    7 1  
     6    3    4 ar 
     7    4    9 1  
     8    4    5 ar 
     9    5    6 ar 
    10    7   12 2  
    11   12   13 1  
    12   13   15 1  
    13   13   14 1  
    14   15   17 ar 
    15   15   16 ar 
    16    8   11 ar 
    17    8   10 ar 
    18    2   18 1  
    19    5   19 1  
    20    6   20 1  
    21    7   21 1  
    22    9   22 1  
    23   10   23 1  
    24   10   24 1  
    25   11   25 1  
    26   11   26 1  
    27   13   27 1  
    28   14   28 1  
    29   14   29 1  
    30   14   30 1  
@<TRIPOS>SUBSTRUCTURE
     1 108         1

