### 
### Created by X-TOOL on Mon Sep 10 21:12:48 2018
### 

@<TRIPOS>MOLECULE
1g3c_ligand
   30    30     1     0     0
SMALL
GAST_HUCK


@<TRIPOS>ATOM
      1 C1         43.7760   -2.9840   26.3340 C.ar      1 109         0.0250
      2 C2         42.6870   -3.4910   27.0250 C.ar      1 109        -0.0177
      3 C3         42.1470   -2.8120   28.1190 C.ar      1 109         0.1118
      4 C4         42.7050   -1.5930   28.5210 C.ar      1 109         0.0433
      5 C5         43.8020   -1.0980   27.8230 C.ar      1 109        -0.0496
      6 C6         44.3300   -1.7810   26.7420 C.ar      1 109        -0.0585
      7 C7         42.1720   -0.8230   29.6300 C.2       1 109         0.0152
      8 C8         44.3230   -3.6950   25.1950 C.cat     1 109         0.2370
      9 O1         41.0910   -3.4080   28.7090 O.3       1 109        -0.3239
     10 N1         44.3660   -5.0210   25.1850 N.pl3     1 109        -0.2715
     11 N2         44.7760   -3.0120   24.1510 N.pl3     1 109        -0.2715
     12 N          41.1490   -1.1790   30.3540 N.2       1 109        -0.3258
     13 CA         40.7150   -0.2720   31.4140 C.3       1 109         0.0654
     14 CB         39.8550    0.8360   30.8140 C.3       1 109        -0.0402
     15 C          39.9250   -1.0200   32.4830 C.2       1 109         0.0488
     16 O          39.9130   -0.5670   33.6350 O.co2     1 109        -0.5678
     17 OXT        39.3100   -2.0870   32.1030 O.co2     1 109        -0.5678
     18 H1         42.2470   -4.4306   26.7109 H         1 109         0.0563
     19 H2         44.2508   -0.1608   28.1316 H         1 109         0.0662
     20 H3         45.1822   -1.3727   26.2109 H         1 109         0.0547
     21 H4         42.6617    0.1186   29.8741 H         1 109         0.1078
     22 H5         40.3368   -2.8322   28.6621 H         1 109         0.2533
     23 H6         44.7564   -5.5175   24.3714 H         1 109         0.3182
     24 H7         44.0090   -5.5539   25.9909 H         1 109         0.3182
     25 H8         44.7439   -1.9825   24.1559 H         1 109         0.3182
     26 H9         45.1596   -3.5115   23.3360 H         1 109         0.3182
     27 H10        41.6034    0.1774   31.8817 H         1 109         0.0591
     28 H11        39.5281    1.5191   31.6118 H         1 109         0.0259
     29 H12        38.9739    0.3931   30.3267 H         1 109         0.0259
     30 H13        40.4429    1.3948   30.0710 H         1 109         0.0259
@<TRIPOS>BOND
     1    1    2 ar 
     2    1    6 ar 
     3    1    8 1  
     4    2    3 ar 
     5    3    4 ar 
     6    3    9 1  
     7    4    5 ar 
     8    4    7 1  
     9    5    6 ar 
    10    7   12 2  
    11    8   10 ar 
    12    8   11 ar 
    13   12   13 1  
    14   13   14 1  
    15   13   15 1  
    16   15   16 ar 
    17   15   17 ar 
    18    2   18 1  
    19    5   19 1  
    20    6   20 1  
    21    7   21 1  
    22    9   22 1  
    23   10   23 1  
    24   10   24 1  
    25   11   25 1  
    26   11   26 1  
    27   13   27 1  
    28   14   28 1  
    29   14   29 1  
    30   14   30 1  
@<TRIPOS>SUBSTRUCTURE
     1 109         1

