### 
### Created by X-TOOL on Mon Sep 10 21:12:48 2018
### 

@<TRIPOS>MOLECULE
1g3d_ligand
   30    30     1     0     0
SMALL
GAST_HUCK


@<TRIPOS>ATOM
      1 C1         43.9870   -2.6970   26.3260 C.ar      1 108         0.0236
      2 C2         43.3470   -3.2410   27.4360 C.ar      1 108        -0.0444
      3 C3         43.1980   -2.5080   28.6200 C.ar      1 108         0.0433
      4 C4         43.7030   -1.2100   28.6780 C.ar      1 108         0.1118
      5 C5         44.3390   -0.6740   27.5640 C.ar      1 108        -0.0230
      6 C6         44.4800   -1.4050   26.4040 C.ar      1 108        -0.0577
      7 C7         42.5220   -3.1200   29.7500 C.2       1 108         0.0152
      8 C8         44.2130   -3.4920   25.1320 C.cat     1 108         0.2315
      9 O1         43.6210   -0.4010   29.7540 O.3       1 108        -0.3239
     10 N1         44.6130   -2.9060   24.0120 N.pl3     1 108        -0.2732
     11 N2         44.0270   -4.8040   25.1560 N.pl3     1 108        -0.2732
     12 N          42.3180   -2.5430   30.9020 N.2       1 108        -0.3258
     13 CA         41.6190   -3.3180   31.9250 C.3       1 108         0.0654
     14 CB         42.5800   -4.2920   32.5890 C.3       1 108        -0.0402
     15 C          40.9930   -2.4060   32.9730 C.2       1 108         0.0488
     16 O          40.2610   -2.9110   33.8330 O.co2     1 108        -0.5678
     17 OXT        41.2740   -1.1530   32.8900 O.co2     1 108        -0.5678
     18 H1         42.9566   -4.2509   27.3830 H         1 108         0.0662
     19 H2         44.7306    0.3358   27.6084 H         1 108         0.0564
     20 H3         44.9796   -0.9662   25.5479 H         1 108         0.0650
     21 H4         42.1574   -4.1387   29.6263 H         1 108         0.1078
     22 H5         44.0346    0.4309   29.5556 H         1 108         0.2533
     23 H6         44.7734   -3.4695   23.1648 H         1 108         0.3180
     24 H7         44.7633   -1.8873   23.9890 H         1 108         0.3180
     25 H8         43.7163   -5.2643   26.0235 H         1 108         0.3180
     26 H9         44.1931   -5.3633   24.3072 H         1 108         0.3180
     27 H10        40.8163   -3.8919   31.4389 H         1 108         0.0591
     28 H11        42.0443   -4.8698   33.3566 H         1 108         0.0259
     29 H12        43.4026   -3.7328   33.0586 H         1 108         0.0259
     30 H13        42.9881   -4.9780   31.8321 H         1 108         0.0259
@<TRIPOS>BOND
     1    1    8 1  
     2    1    6 ar 
     3    1    2 ar 
     4    2    3 ar 
     5    3    7 1  
     6    3    4 ar 
     7    4    9 1  
     8    4    5 ar 
     9    5    6 ar 
    10    7   12 2  
    11   12   13 1  
    12   13   15 1  
    13   13   14 1  
    14   15   17 ar 
    15   15   16 ar 
    16    8   11 ar 
    17    8   10 ar 
    18    2   18 1  
    19    5   19 1  
    20    6   20 1  
    21    7   21 1  
    22    9   22 1  
    23   10   23 1  
    24   10   24 1  
    25   11   25 1  
    26   11   26 1  
    27   13   27 1  
    28   14   28 1  
    29   14   29 1  
    30   14   30 1  
@<TRIPOS>SUBSTRUCTURE
     1 108         1

