### 
### Created by X-TOOL on Mon Sep 10 21:12:48 2018
### 

@<TRIPOS>MOLECULE
1g3e_ligand
   30    30     1     0     0
SMALL
GAST_HUCK


@<TRIPOS>ATOM
      1 C1         43.9090   -3.0280   26.3020 C.ar      1 109         0.0250
      2 C2         43.0610   -3.6520   27.2020 C.ar      1 109        -0.0177
      3 C3         42.6050   -2.9890   28.3410 C.ar      1 109         0.1118
      4 C4         43.0120   -1.6730   28.5850 C.ar      1 109         0.0433
      5 C5         43.8640   -1.0600   27.6730 C.ar      1 109        -0.0496
      6 C6         44.3080   -1.7270   26.5500 C.ar      1 109        -0.0585
      7 C7         42.5750   -0.9240   29.7480 C.2       1 109         0.0152
      8 C8         44.2750   -3.6840   25.0640 C.cat     1 109         0.2370
      9 O1         41.7830   -3.7040   29.1340 O.3       1 109        -0.3239
     10 N1         44.6660   -2.9650   24.0210 N.pl3     1 109        -0.2715
     11 N2         44.2170   -5.0050   24.9720 N.pl3     1 109        -0.2715
     12 N          41.7780   -1.3900   30.6640 N.2       1 109        -0.3258
     13 CA         41.4160   -0.5250   31.7830 C.3       1 109         0.0654
     14 CB         40.0620    0.1260   31.5190 C.3       1 109        -0.0402
     15 C          41.3650   -1.3380   33.0730 C.2       1 109         0.0488
     16 O          42.1840   -1.0980   33.9710 O.co2     1 109        -0.5678
     17 OXT        40.4490   -2.2430   33.1320 O.co2     1 109        -0.5678
     18 H1         42.7465   -4.6729   27.0179 H         1 109         0.0563
     19 H2         44.1852   -0.0395   27.8476 H         1 109         0.0662
     20 H3         44.9748   -1.2276   25.8565 H         1 109         0.0547
     21 H4         42.9385    0.0963   29.8616 H         1 109         0.1078
     22 H5         41.5251   -3.1751   29.8798 H         1 109         0.2533
     23 H6         44.9260   -3.4331   23.1411 H         1 109         0.3182
     24 H7         44.7098   -1.9383   24.0906 H         1 109         0.3182
     25 H8         43.9134   -5.5648   25.7815 H         1 109         0.3182
     26 H9         44.4755   -5.4717   24.0910 H         1 109         0.3182
     27 H10        42.1767    0.2627   31.8872 H         1 109         0.0591
     28 H11        39.7962    0.7758   32.3659 H         1 109         0.0259
     29 H12        39.2963   -0.6550   31.4017 H         1 109         0.0259
     30 H13        40.1171    0.7267   30.5992 H         1 109         0.0259
@<TRIPOS>BOND
     1    1    8 1  
     2    1    6 ar 
     3    1    2 ar 
     4    2    3 ar 
     5    3    9 1  
     6    3    4 ar 
     7    4    7 1  
     8    4    5 ar 
     9    5    6 ar 
    10    7   12 2  
    11   12   13 1  
    12   13   15 1  
    13   13   14 1  
    14   15   17 ar 
    15   15   16 ar 
    16    8   11 ar 
    17    8   10 ar 
    18    2   18 1  
    19    5   19 1  
    20    6   20 1  
    21    7   21 1  
    22    9   22 1  
    23   10   23 1  
    24   10   24 1  
    25   11   25 1  
    26   11   26 1  
    27   13   27 1  
    28   14   28 1  
    29   14   29 1  
    30   14   30 1  
@<TRIPOS>SUBSTRUCTURE
     1 109         1

