### 
### Created by X-TOOL on Mon Sep 10 21:12:50 2018
### 

@<TRIPOS>MOLECULE
1g3m_ligand
   24    25     1     0     0
SMALL
GAST_HUCK


@<TRIPOS>ATOM
      1 CL1        31.8240    2.9030    8.6280 Cl        1 PCQ        -0.0787
      2 CL2        29.6280    5.7520    4.4520 Cl        1 PCQ        -0.0787
      3 O1         30.9280    5.4670    7.1140 O.3       1 PCQ        -0.3311
      4 C1         30.2260    1.7540    4.9940 C.ar      1 PCQ        -0.0334
      5 C2         30.8760    1.7610    6.3870 C.ar      1 PCQ        -0.0499
      6 C3         31.0950    2.9840    7.0640 C.ar      1 PCQ         0.0686
      7 C4         30.7280    4.2690    6.4930 C.ar      1 PCQ         0.1165
      8 C5         30.1060    4.2530    5.1780 C.ar      1 PCQ         0.0686
      9 C6         29.8670    3.0510    4.4610 C.ar      1 PCQ        -0.0499
     10 CL3        27.3370   -0.8610    1.4670 Cl        1 PCQ        -0.0787
     11 CL4        31.5230   -3.3210    3.9350 Cl        1 PCQ        -0.0787
     12 O1'        29.2270   -3.1760    2.0640 O.3       1 PCQ        -0.3311
     13 C1'        29.9760    0.4660    4.2370 C.ar      1 PCQ        -0.0334
     14 C2'        28.8950    0.3630    3.2850 C.ar      1 PCQ        -0.0499
     15 C3'        28.6500   -0.8350    2.5720 C.ar      1 PCQ         0.0686
     16 C4'        29.4480   -2.0150    2.7400 C.ar      1 PCQ         0.1165
     17 C5'        30.5340   -1.9300    3.6900 C.ar      1 PCQ         0.0686
     18 C6'        30.8020   -0.7340    4.4230 C.ar      1 PCQ        -0.0499
     19 H1         30.4548    5.4784    7.9376 H         1 PCQ         0.2493
     20 H2         31.1675    0.8262    6.8520 H         1 PCQ         0.0594
     21 H3         29.4011    3.1064    3.4838 H         1 PCQ         0.0594
     22 H4         29.8707   -3.8227    2.3286 H         1 PCQ         0.2493
     23 H5         28.2570    1.2222    3.1126 H         1 PCQ         0.0594
     24 H6         31.6265   -0.7116    5.1264 H         1 PCQ         0.0594
@<TRIPOS>BOND
     1    6    1 1  
     2    8    2 1  
     3    7    3 1  
     4    4    5 ar 
     5    4    9 ar 
     6   13    4 1  
     7    5    6 ar 
     8    6    7 ar 
     9    8    7 ar 
    10    9    8 ar 
    11   15   10 1  
    12   17   11 1  
    13   16   12 1  
    14   14   13 ar 
    15   13   18 ar 
    16   15   14 ar 
    17   16   15 ar 
    18   16   17 ar 
    19   17   18 ar 
    20    3   19 1  
    21    5   20 1  
    22    9   21 1  
    23   12   22 1  
    24   14   23 1  
    25   18   24 1  
@<TRIPOS>SUBSTRUCTURE
     1 PCQ         1

