### 
### Created by X-TOOL on Mon Sep 10 21:12:47 2018
### 

@<TRIPOS>MOLECULE
1g45_ligand
   34    35     1     0     0
SMALL
GAST_HUCK


@<TRIPOS>ATOM
      1 C01        -3.9180    3.4410   14.6860 C.ar      1 FSB        -0.0401
      2 C02        -4.3030    2.2840   15.4070 C.ar      1 FSB        -0.0295
      3 C03        -5.6360    2.2460   15.9250 C.ar      1 FSB         0.1122
      4 C04        -6.4850    3.3490   15.6910 C.ar      1 FSB        -0.0295
      5 C05        -6.0620    4.4710   14.9700 C.ar      1 FSB        -0.0401
      6 C06        -4.7860    4.5210   14.4700 C.ar      1 FSB         0.0501
      7 C07        -4.3100    5.7250   13.6940 C.2       1 FSB         0.2067
      8 O08        -5.0740    6.6390   13.5200 O.2       1 FSB        -0.3845
      9 N09        -3.0260    5.7820   13.1970 N.am      1 FSB        -0.2754
     10 C10        -2.4130    6.8690   12.4430 C.3       1 FSB         0.0648
     11 S11        -6.1150    0.7670   16.8520 S.o2      1 FSB         0.0677
     12 NP2        -5.6910   -0.5790   16.1580 N.am      1 FSB        -0.2605
     13 O13        -7.5940    1.0570   16.9230 O.2       1 FSB        -0.1499
     14 O14        -5.5380    1.0750   18.1620 O.2       1 FSB        -0.1499
     15 C15        -1.6820    7.8380   13.2000 C.ar      1 FSB         0.0127
     16 C16        -2.2640    8.3240   14.4100 C.ar      1 FSB        -0.0601
     17 C17        -1.6080    9.2860   15.2280 C.ar      1 FSB        -0.0725
     18 C18        -0.3420    9.7690   14.8230 C.ar      1 FSB        -0.0706
     19 C19         0.2850    9.3050   13.6080 C.ar      1 FSB        -0.0348
     20 C20        -0.3940    8.3210   12.7780 C.ar      1 FSB         0.1350
     21 F21         0.1690    7.8750   11.6460 F         1 FSB        -0.1890
     22 H1         -2.9122    3.4936   14.2852 H         1 FSB         0.0670
     23 H2         -3.6151    1.4604   15.5601 H         1 FSB         0.0649
     24 H3         -7.4958    3.3261   16.0819 H         1 FSB         0.0649
     25 H4         -6.7418    5.2994   14.8069 H         1 FSB         0.0670
     26 H5         -2.4477    4.9856   13.3740 H         1 FSB         0.1871
     27 H6         -3.2151    7.3986   11.9082 H         1 FSB         0.0675
     28 H7         -1.7201    6.4217   11.7151 H         1 FSB         0.0675
     29 H8         -5.9090   -1.4544   16.5895 H         1 FSB         0.1635
     30 H9         -5.2034   -0.5595   15.2852 H         1 FSB         0.1635
     31 H10        -3.2344    7.9490   14.7145 H         1 FSB         0.0546
     32 H11        -2.0690    9.6412   16.1425 H         1 FSB         0.0565
     33 H12         0.1679   10.5024   15.4372 H         1 FSB         0.0549
     34 H13         1.2562    9.6875   13.3156 H         1 FSB         0.0585
@<TRIPOS>BOND
     1    1    6 ar 
     2    1    2 ar 
     3    2    3 ar 
     4    3   11 1  
     5    3    4 ar 
     6    4    5 ar 
     7    5    6 ar 
     8    6    7 1  
     9    7    9 am 
    10    7    8 2  
    11    9   10 1  
    12   10   15 1  
    13   15   20 ar 
    14   15   16 ar 
    15   16   17 ar 
    16   17   18 ar 
    17   18   19 ar 
    18   19   20 ar 
    19   11   14 2  
    20   11   13 2  
    21   11   12 am 
    22   20   21 1  
    23    1   22 1  
    24    2   23 1  
    25    4   24 1  
    26    5   25 1  
    27    9   26 1  
    28   10   27 1  
    29   10   28 1  
    30   12   29 1  
    31   12   30 1  
    32   16   31 1  
    33   17   32 1  
    34   18   33 1  
    35   19   34 1  
@<TRIPOS>SUBSTRUCTURE
     1 FSB         1

