### 
### Created by X-TOOL on Mon Sep 10 21:12:47 2018
### 

@<TRIPOS>MOLECULE
1g46_ligand
   34    35     1     0     0
SMALL
GAST_HUCK


@<TRIPOS>ATOM
      1 C01        -3.7760    3.4840   14.8430 C.ar      1 F2B        -0.0401
      2 C02        -4.1720    2.3500   15.5910 C.ar      1 F2B        -0.0295
      3 C03        -5.5470    2.2440   15.9710 C.ar      1 F2B         0.1122
      4 C04        -6.4400    3.2680   15.5950 C.ar      1 F2B        -0.0295
      5 C05        -5.9960    4.3740   14.8560 C.ar      1 F2B        -0.0401
      6 C06        -4.6820    4.4900   14.4760 C.ar      1 F2B         0.0501
      7 C07        -4.2030    5.6770   13.6740 C.2       1 F2B         0.2067
      8 O08        -4.9920    6.5560   13.3470 O.2       1 F2B        -0.3845
      9 N09        -2.8760    5.7480   13.3320 N.am      1 F2B        -0.2755
     10 C10        -2.1590    6.7810   12.5860 C.3       1 F2B         0.0639
     11 S11        -6.0790    0.8210   16.8920 S.o2      1 F2B         0.0677
     12 NP2        -5.6770   -0.5870   16.0830 N.am      1 F2B        -0.2605
     13 O13        -7.5130    1.0660   17.0180 O.2       1 F2B        -0.1499
     14 O14        -5.4220    1.0020   18.1930 O.2       1 F2B        -0.1499
     15 C15        -1.6020    7.8570   13.3630 C.ar      1 F2B         0.0110
     16 C16        -1.9250    7.9340   14.7600 C.ar      1 F2B        -0.0640
     17 C17        -1.3710    9.0150   15.5610 C.ar      1 F2B        -0.0742
     18 C18        -0.5050    9.9880   14.9340 C.ar      1 F2B        -0.0368
     19 C19        -0.1790    9.9230   13.5560 C.ar      1 F2B         0.1588
     20 C20        -0.7250    8.8540   12.7540 C.ar      1 F2B         0.1675
     21 F21         0.3700   10.5560   13.1960 F         1 F2B        -0.1863
     22 F22        -0.4600    8.8140   11.6700 F         1 F2B        -0.1901
     23 H1         -2.7384    3.5784   14.5438 H         1 F2B         0.0670
     24 H2         -3.4554    1.5851   15.8676 H         1 F2B         0.0649
     25 H3         -7.4834    3.1996   15.8808 H         1 F2B         0.0649
     26 H4         -6.7015    5.1495   14.5805 H         1 F2B         0.0670
     27 H5         -2.3158    4.9785   13.6387 H         1 F2B         0.1870
     28 H6         -2.8608    7.2192   11.8611 H         1 F2B         0.0674
     29 H7         -1.3328    6.2935   12.0478 H         1 F2B         0.0674
     30 H8         -5.9120   -1.4751   16.4780 H         1 F2B         0.1635
     31 H9         -5.2017   -0.5405   15.2044 H         1 F2B         0.1635
     32 H10        -2.5750    7.1943   15.2133 H         1 F2B         0.0513
     33 H11        -1.6052    9.0900   16.6168 H         1 F2B         0.0555
     34 H12        -0.0930   10.7906   15.5350 H         1 F2B         0.0536
@<TRIPOS>BOND
     1    1    6 ar 
     2    1    2 ar 
     3    2    3 ar 
     4    3   11 1  
     5    3    4 ar 
     6    4    5 ar 
     7    5    6 ar 
     8    6    7 1  
     9    7    9 am 
    10    7    8 2  
    11    9   10 1  
    12   10   15 1  
    13   15   20 ar 
    14   15   16 ar 
    15   16   17 ar 
    16   17   18 ar 
    17   18   19 ar 
    18   19   20 ar 
    19   11   14 2  
    20   11   13 2  
    21   11   12 am 
    22   20   22 1  
    23   19   21 1  
    24    1   23 1  
    25    2   24 1  
    26    4   25 1  
    27    5   26 1  
    28    9   27 1  
    29   10   28 1  
    30   10   29 1  
    31   12   30 1  
    32   12   31 1  
    33   16   32 1  
    34   17   33 1  
    35   18   34 1  
@<TRIPOS>SUBSTRUCTURE
     1 F2B         1

