### 
### Created by X-TOOL on Mon Sep 10 21:12:47 2018
### 

@<TRIPOS>MOLECULE
1g48_ligand
   34    35     1     0     0
SMALL
GAST_HUCK


@<TRIPOS>ATOM
      1 C01        -3.7940    3.5380   14.8550 C.ar      1 F6B        -0.0401
      2 C02        -4.2120    2.3990   15.5800 C.ar      1 F6B        -0.0295
      3 C03        -5.5880    2.2540   15.9480 C.ar      1 F6B         0.1122
      4 C04        -6.4670    3.2680   15.5780 C.ar      1 F6B        -0.0295
      5 C05        -6.0260    4.3810   14.8680 C.ar      1 F6B        -0.0401
      6 C06        -4.7020    4.5370   14.4920 C.ar      1 F6B         0.0501
      7 C07        -4.2770    5.7680   13.6970 C.2       1 F6B         0.2066
      8 O08        -5.1880    6.5530   13.4440 O.2       1 F6B        -0.3845
      9 N09        -2.9710    6.0990   13.2190 N.am      1 F6B        -0.2760
     10 C10        -2.7940    7.5340   12.9470 C.3       1 F6B         0.0656
     11 S11        -6.0930    0.7770   16.8530 S.o2      1 F6B         0.0677
     12 NP2        -5.6120   -0.6010   16.0100 N.am      1 F6B        -0.2605
     13 O13        -7.5340    0.9560   16.9790 O.2       1 F6B        -0.1499
     14 O14        -5.4420    0.9540   18.1540 O.2       1 F6B        -0.1499
     15 C15        -1.6920    8.2620   13.4360 C.ar      1 F6B         0.0461
     16 C16        -0.4240    8.1310   12.7780 C.ar      1 F6B         0.1334
     17 C17         0.6970    8.8860   13.2940 C.ar      1 F6B        -0.0388
     18 C18         0.5280    9.7520   14.4460 C.ar      1 F6B        -0.0723
     19 C19        -0.7560    9.8670   15.0900 C.ar      1 F6B        -0.0388
     20 C20        -1.8630    9.1280   14.5920 C.ar      1 F6B         0.1334
     21 F21        -0.2750    7.3300   11.7140 F         1 F6B        -0.1902
     22 F22        -3.0470    9.2520   15.2070 F         1 F6B        -0.1902
     23 H1         -2.7515    3.6386   14.5757 H         1 F6B         0.0670
     24 H2         -3.4924    1.6370   15.8568 H         1 F6B         0.0649
     25 H3         -7.5140    3.1894   15.8477 H         1 F6B         0.0649
     26 H4         -6.7415    5.1502   14.6008 H         1 F6B         0.0670
     27 H5         -2.2483    5.4214   13.0828 H         1 F6B         0.1869
     28 H6         -3.6909    8.0337   13.3417 H         1 F6B         0.0667
     29 H7         -2.7683    7.6376   11.8522 H         1 F6B         0.0667
     30 H8         -5.8158   -1.5085   16.3774 H         1 F6B         0.1635
     31 H9         -5.1228   -0.5111   15.1425 H         1 F6B         0.1635
     32 H10         1.6675    8.8044   12.8180 H         1 F6B         0.0551
     33 H11         1.3729   10.3159   14.8245 H         1 F6B         0.0539
     34 H12        -0.8770   10.5146   15.9508 H         1 F6B         0.0551
@<TRIPOS>BOND
     1    1    6 ar 
     2    1    2 ar 
     3    2    3 ar 
     4    3   11 1  
     5    3    4 ar 
     6    4    5 ar 
     7    5    6 ar 
     8    6    7 1  
     9    7    9 am 
    10    7    8 2  
    11    9   10 1  
    12   10   15 1  
    13   15   20 ar 
    14   15   16 ar 
    15   16   17 ar 
    16   17   18 ar 
    17   18   19 ar 
    18   19   20 ar 
    19   11   14 2  
    20   11   13 2  
    21   11   12 am 
    22   16   21 1  
    23   20   22 1  
    24    1   23 1  
    25    2   24 1  
    26    4   25 1  
    27    5   26 1  
    28    9   27 1  
    29   10   28 1  
    30   10   29 1  
    31   12   30 1  
    32   12   31 1  
    33   17   32 1  
    34   18   33 1  
    35   19   34 1  
@<TRIPOS>SUBSTRUCTURE
     1 F6B         1

