### 
### Created by X-TOOL on Mon Sep 10 21:12:48 2018
### 

@<TRIPOS>MOLECULE
1g49_ligand
   53    54     1     0     0
SMALL
GAST_HUCK


@<TRIPOS>ATOM
      1 O5          4.3950   55.0840   51.5310 O.2       1 111        -0.1558
      2 S2          3.1250   54.1810   51.3220 S.o2      1 111         0.0364
      3 O4          2.1900   54.2180   52.5890 O.2       1 111        -0.1558
      4 C13         2.1730   54.7180   49.9180 C.3       1 111         0.0732
      5 N2          3.6540   52.5500   51.1160 N.am      1 111        -0.2472
      6 C17         2.9630   51.4970   51.8730 C.3       1 111         0.0584
      7 C11         3.9190   50.5830   52.6640 C.3       1 111         0.0522
      8 C9          2.1910   50.5610   50.9400 C.3       1 111         0.0055
      9 C8          2.2670   49.1970   51.6050 C.3       1 111         0.1327
     10 C20         1.1340   49.2230   52.6100 C.2       1 111         0.2209
     11 OB          0.6970   50.4080   53.0830 O.2       1 111        -0.3949
     12 NA          0.5450   48.0910   52.9570 N.am      1 111        -0.1627
     13 OA         -0.6960   48.3180   53.5010 O.3       1 111        -0.2717
     14 N1          3.6090   49.2190   52.1920 N.am      1 111        -0.2116
     15 S1          4.1840   47.8170   53.0310 S.o2      1 111         0.0679
     16 O1          3.7300   46.5320   52.2670 O.2       1 111        -0.1514
     17 O2          5.7440   47.8370   52.9970 O.2       1 111        -0.1514
     18 C1          3.6230   47.7150   54.6720 C.ar      1 111         0.0973
     19 C2          3.9820   48.7310   55.5530 C.ar      1 111        -0.0440
     20 C3          3.6100   48.6780   56.8910 C.ar      1 111        -0.0313
     21 C4          2.8600   47.6070   57.3610 C.ar      1 111         0.0912
     22 C5          2.5140   46.5770   56.5020 C.ar      1 111        -0.0313
     23 C6          2.8890   46.6280   55.1580 C.ar      1 111        -0.0440
     24 O3          2.5210   47.5680   58.5570 O.3       1 111        -0.3180
     25 C7          3.3230   48.2770   59.5050 C.3       1 111         0.0704
     26 C10         2.9470   47.9500   60.9270 C.3       1 111        -0.0253
     27 C12         3.2370   46.4960   61.3150 C.3       1 111        -0.0535
     28 C14         3.1450   45.5400   60.1490 C.3       1 111        -0.0652
     29 H1          1.2942   54.0670   49.8003 H         1 111         0.0482
     30 H2          2.7937   54.6635   49.0115 H         1 111         0.0482
     31 H3          1.8424   55.7554   50.0742 H         1 111         0.0482
     32 H4          4.4092   52.3284   50.4990 H         1 111         0.1672
     33 H5          2.2651   51.9816   52.5716 H         1 111         0.0529
     34 H6          3.7342   50.6709   53.7448 H         1 111         0.0499
     35 H7          4.9670   50.8390   52.4492 H         1 111         0.0499
     36 H8          2.6595   50.5332   49.9452 H         1 111         0.0327
     37 H9          1.1448   50.8869   50.8437 H         1 111         0.0327
     38 H10         2.1515   48.3575   50.9036 H         1 111         0.0756
     39 H11         0.9512   47.1849   52.8385 H         1 111         0.2217
     40 H12        -1.0926   47.4884   53.7395 H         1 111         0.2490
     41 H13         4.5590   49.5742   55.1909 H         1 111         0.0608
     42 H14         3.9049   49.4719   57.5676 H         1 111         0.0542
     43 H15         1.9506   45.7290   56.8742 H         1 111         0.0542
     44 H16         2.6103   45.8222   54.4887 H         1 111         0.0608
     45 H17         3.1909   49.3570   59.3432 H         1 111         0.0614
     46 H18         4.3781   48.0089   59.3471 H         1 111         0.0614
     47 H19         1.8705   48.1367   61.0546 H         1 111         0.0291
     48 H20         3.5158   48.6100   61.5985 H         1 111         0.0291
     49 H21         2.5093   46.1862   62.0795 H         1 111         0.0263
     50 H22         4.2532   46.4414   61.7326 H         1 111         0.0263
     51 H23         3.3632   44.5186   60.4942 H         1 111         0.0230
     52 H24         3.8744   45.8302   59.3784 H         1 111         0.0230
     53 H25         2.1305   45.5749   59.7253 H         1 111         0.0230
@<TRIPOS>BOND
     1    1    2 2  
     2    2    5 am 
     3    2    4 1  
     4    2    3 2  
     5    5    6 1  
     6    6    8 1  
     7    6    7 1  
     8    7   14 1  
     9   14   15 am 
    10   14    9 1  
    11    9   10 1  
    12    9    8 1  
    13   10   12 am 
    14   10   11 2  
    15   12   13 1  
    16   15   18 1  
    17   15   17 2  
    18   15   16 2  
    19   18   23 ar 
    20   18   19 ar 
    21   19   20 ar 
    22   20   21 ar 
    23   21   24 1  
    24   21   22 ar 
    25   22   23 ar 
    26   24   25 1  
    27   25   26 1  
    28   26   27 1  
    29   27   28 1  
    30    4   29 1  
    31    4   30 1  
    32    4   31 1  
    33    5   32 1  
    34    6   33 1  
    35    7   34 1  
    36    7   35 1  
    37    8   36 1  
    38    8   37 1  
    39    9   38 1  
    40   12   39 1  
    41   13   40 1  
    42   19   41 1  
    43   20   42 1  
    44   22   43 1  
    45   23   44 1  
    46   25   45 1  
    47   25   46 1  
    48   26   47 1  
    49   26   48 1  
    50   27   49 1  
    51   27   50 1  
    52   28   51 1  
    53   28   52 1  
    54   28   53 1  
@<TRIPOS>SUBSTRUCTURE
     1 111         1

