### 
### Created by X-TOOL on Fri Sep 26 17:34:16 2014
### 

@<TRIPOS>MOLECULE
1g4j_ligand
   34    35     1     0     0
SMALL
GAST_HUCK


@<TRIPOS>ATOM
      1 C01        -3.7910    3.4140   14.8570 C.ar      1 FFB        -0.0401
      2 C02        -4.2600    2.3160   15.5700 C.ar      1 FFB        -0.0295
      3 C03        -5.6410    2.2290   15.8850 C.ar      1 FFB         0.1122
      4 C04        -6.4870    3.2450   15.4460 C.ar      1 FFB        -0.0295
      5 C05        -5.9900    4.3270   14.7320 C.ar      1 FFB        -0.0401
      6 C06        -4.6480    4.4260   14.4440 C.ar      1 FFB         0.0501
      7 C07        -4.1170    5.6280   13.7280 C.2       1 FFB         0.2065
      8 O08        -4.9540    6.4720   13.4230 O.2       1 FFB        -0.3845
      9 N09        -2.7550    5.8620   13.4360 N.am      1 FFB        -0.2767
     10 C10        -2.3840    6.7140   12.3150 C.3       1 FFB         0.0622
     11 S11        -6.2020    0.8280   16.8390 S.o2      1 FFB         0.0677
     12 NP2        -5.7890   -0.5940   16.0600 N.am      1 FFB        -0.2605
     13 O13        -7.6480    1.0770   16.9330 O.2       1 FFB        -0.1499
     14 O14        -5.5440    1.0340   18.1350 O.2       1 FFB        -0.1499
     15 C15        -1.3870    7.6740   12.6900 C.ar      1 FFB         0.0391
     16 C16        -1.5660    8.3690   13.9310 C.ar      1 FFB         0.1606
     17 C17        -0.5680    9.3310   14.3390 C.ar      1 FFB         0.1858
     18 C18         0.5830    9.5770   13.5040 C.ar      1 FFB         0.1874
     19 C19         0.7500    8.8730   12.2650 C.ar      1 FFB         0.1858
     20 C20        -0.2250    7.9230   11.8510 C.ar      1 FFB         0.1606
     21 F21        -2.6310    8.1410   14.7120 F         1 FFB        -0.1954
     22 F22        -0.7120    9.9940   15.4950 F         1 FFB        -0.1914
     23 F23         1.5030   10.4710   13.8910 F         1 FFB        -0.1930
     24 F24         1.8200    9.1010   11.4910 F         1 FFB        -0.1914
     25 F25        -0.0430    7.2770   10.6910 F         1 FFB        -0.1954
     26 H1         -2.7356    3.4814   14.6188 H         1 FFB         0.0670
     27 H2         -3.5772    1.5341   15.8822 H         1 FFB         0.0649
     28 H3         -7.5473    3.1901   15.6648 H         1 FFB         0.0649
     29 H4         -6.6678    5.1038   14.3971 H         1 FFB         0.0670
     30 H5         -2.0443    5.4418   14.0002 H         1 FFB         0.1868
     31 H6         -3.2782    7.2477   11.9608 H         1 FFB         0.0658
     32 H7         -1.9872    6.0851   11.5044 H         1 FFB         0.0658
     33 H8         -6.0324   -1.4751   16.4654 H         1 FFB         0.1635
     34 H9         -5.2987   -0.5628   15.1890 H         1 FFB         0.1635
@<TRIPOS>BOND
     1    1    6 ar 
     2    1    2 ar 
     3    2    3 ar 
     4    3   11 1  
     5    3    4 ar 
     6    4    5 ar 
     7    5    6 ar 
     8    6    7 1  
     9    7    9 am 
    10    7    8 2  
    11    9   10 1  
    12   10   15 1  
    13   15   20 ar 
    14   15   16 ar 
    15   16   17 ar 
    16   17   18 ar 
    17   18   19 ar 
    18   19   20 ar 
    19   11   14 2  
    20   11   13 2  
    21   11   12 am 
    22   18   23 1  
    23   19   24 1  
    24   17   22 1  
    25   16   21 1  
    26   20   25 1  
    27    1   26 1  
    28    2   27 1  
    29    4   28 1  
    30    5   29 1  
    31    9   30 1  
    32   10   31 1  
    33   10   32 1  
    34   12   33 1  
    35   12   34 1  
@<TRIPOS>SUBSTRUCTURE
     1 FFB         1

