### 
### Created by X-TOOL on Mon Sep 10 21:12:48 2018
### 

@<TRIPOS>MOLECULE
1g4k_ligand
   37    39     1     0     0
SMALL
GAST_HUCK


@<TRIPOS>ATOM
      1 N1         18.8820   30.3150   48.1300 N.am      1 HQQ        -0.1899
      2 C2         18.6140   30.6800   49.4380 C.2       1 HQQ         0.3169
      3 O2         18.9420   30.0180   50.4600 O.2       1 HQQ        -0.3817
      4 N3         17.7000   31.6700   49.6550 N.am      1 HQQ        -0.1899
      5 C4         17.4320   32.6420   48.7170 C.2       1 HQQ         0.1914
      6 O4         16.4050   33.3020   48.9930 O.2       1 HQQ        -0.3629
      7 C5         17.8880   32.3950   47.2630 C.3       1 HQQ         0.1138
      8 C6         18.3950   30.9600   47.0320 C.2       1 HQQ         0.1914
      9 O6         18.6510   30.6210   45.8620 O.2       1 HQQ        -0.3629
     10 C7         16.7220   32.6850   46.2550 C.3       1 HQQ        -0.0736
     11 C8         19.1570   33.3550   47.2810 C.ar      1 HQQ        -0.0447
     12 C9         20.5060   32.8210   47.4360 C.ar      1 HQQ        -0.0446
     13 C10        21.6150   33.6940   47.4970 C.ar      1 HQQ         0.0071
     14 C11        21.4640   35.0910   47.4480 C.ar      1 HQQ         0.1564
     15 C12        20.1370   35.6460   47.3180 C.ar      1 HQQ         0.0071
     16 C13        19.0120   34.7800   47.2240 C.ar      1 HQQ        -0.0446
     17 O11        22.6130   35.9220   47.4880 O.3       1 HQQ        -0.2305
     18 C14        22.4020   37.3360   47.5980 C.ar      1 HQQ         0.1297
     19 C15        23.0790   38.1890   46.6690 C.ar      1 HQQ        -0.0246
     20 C16        22.8540   39.6060   46.7280 C.ar      1 HQQ        -0.0676
     21 C17        21.9480   40.1060   47.7200 C.ar      1 HQQ        -0.0705
     22 C18        21.2530   39.2790   48.6340 C.ar      1 HQQ        -0.0676
     23 C19        21.4760   37.8700   48.5690 C.ar      1 HQQ        -0.0246
     24 H1         19.4740   29.5231   47.9799 H         1 HQQ         0.2254
     25 H2         17.2079   31.6903   50.5253 H         1 HQQ         0.2254
     26 H3         16.3499   33.7086   46.4094 H         1 HQQ         0.0103
     27 H4         15.9047   31.9684   46.4238 H         1 HQQ         0.0103
     28 H5         17.0936   32.5815   45.2249 H         1 HQQ         0.0103
     29 H6         20.6579   31.7499   47.5046 H         1 HQQ         0.0819
     30 H7         22.6109   33.2748   47.5841 H         1 HQQ         0.0669
     31 H8         19.9983   36.7208   47.2921 H         1 HQQ         0.0669
     32 H9         18.0228   35.2075   47.1066 H         1 HQQ         0.0819
     33 H10        23.7530   37.7706   45.9303 H         1 HQQ         0.0569
     34 H11        23.3553   40.2788   46.0416 H         1 HQQ         0.0595
     35 H12        21.7864   41.1766   47.7729 H         1 HQQ         0.0543
     36 H13        20.5711   39.7027   49.3624 H         1 HQQ         0.0595
     37 H14        20.9525   37.2042   49.2455 H         1 HQQ         0.0569
@<TRIPOS>BOND
     1    8    1 am 
     2    1    2 am 
     3    2    4 am 
     4    2    3 2  
     5    4    5 am 
     6    5    7 1  
     7    5    6 2  
     8    7   11 1  
     9    7   10 1  
    10    7    8 1  
    11    8    9 2  
    12   11   16 ar 
    13   11   12 ar 
    14   12   13 ar 
    15   13   14 ar 
    16   14   17 1  
    17   14   15 ar 
    18   15   16 ar 
    19   17   18 1  
    20   18   23 ar 
    21   18   19 ar 
    22   19   20 ar 
    23   20   21 ar 
    24   21   22 ar 
    25   22   23 ar 
    26    1   24 1  
    27    4   25 1  
    28   10   26 1  
    29   10   27 1  
    30   10   28 1  
    31   12   29 1  
    32   13   30 1  
    33   15   31 1  
    34   16   32 1  
    35   19   33 1  
    36   20   34 1  
    37   21   35 1  
    38   22   36 1  
    39   23   37 1  
@<TRIPOS>SUBSTRUCTURE
     1 HQQ         1

