### 
### Created by X-TOOL on Mon Sep 10 21:12:47 2018
### 

@<TRIPOS>MOLECULE
1g4o_ligand
   34    35     1     0     0
SMALL
GAST_HUCK


@<TRIPOS>ATOM
      1 C01        -3.8480    3.5450   14.6910 C.ar      1 BSB        -0.0401
      2 C02        -4.2370    2.3650   15.3650 C.ar      1 BSB        -0.0295
      3 C03        -5.5740    2.3350   15.9180 C.ar      1 BSB         0.1122
      4 C04        -6.4120    3.4700   15.7530 C.ar      1 BSB        -0.0295
      5 C05        -5.9770    4.6190   15.0710 C.ar      1 BSB        -0.0401
      6 C06        -4.7000    4.6590   14.5450 C.ar      1 BSB         0.0501
      7 C07        -4.1860    5.8880   13.8100 C.2       1 BSB         0.2068
      8 O08        -4.9130    6.8570   13.6790 O.2       1 BSB        -0.3845
      9 N09        -2.8950    5.8980   13.3010 N.am      1 BSB        -0.2748
     10 C10        -2.2190    6.9700   12.5800 C.3       1 BSB         0.0640
     11 S11        -6.0590    0.8320   16.7840 S.o2      1 BSB         0.0677
     12 NP2        -5.6290   -0.5400   16.0950 N.am      1 BSB        -0.2605
     13 O13        -7.5390    1.0910   16.8390 O.2       1 BSB        -0.1499
     14 O14        -5.5270    1.1290   18.0940 O.2       1 BSB        -0.1499
     15 C15        -1.4690    7.9020   13.3820 C.ar      1 BSB        -0.0210
     16 C16        -1.8430    8.0700   14.7660 C.ar      1 BSB        -0.0584
     17 C17        -1.1590    8.9730   15.6310 C.ar      1 BSB        -0.0685
     18 C18        -0.0750    9.7300   15.1060 C.ar      1 BSB        -0.0687
     19 C19         0.3390    9.5950   13.7200 C.ar      1 BSB        -0.0685
     20 C20        -0.3680    8.6670   12.8410 C.ar      1 BSB        -0.0584
     21 H1         -2.8513    3.5957   14.2679 H         1 BSB         0.0670
     22 H2         -3.5642    1.5207   15.4632 H         1 BSB         0.0649
     23 H3         -7.4146    3.4492   16.1645 H         1 BSB         0.0649
     24 H4         -6.6397    5.4694   14.9582 H         1 BSB         0.0670
     25 H5         -2.3611    5.0651   13.4471 H         1 BSB         0.1872
     26 H6         -2.9836    7.5393   12.0310 H         1 BSB         0.0683
     27 H7         -1.5231    6.5067   11.8651 H         1 BSB         0.0683
     28 H8         -5.8672   -1.4112   16.5242 H         1 BSB         0.1635
     29 H9         -5.1211   -0.5293   15.2336 H         1 BSB         0.1635
     30 H10        -2.6704    7.4910   15.1600 H         1 BSB         0.0557
     31 H11        -1.4585    9.0807   16.6672 H         1 BSB         0.0599
     32 H12         0.4526   10.4214   15.7530 H         1 BSB         0.0559
     33 H13         1.1686   10.1801   13.3400 H         1 BSB         0.0599
     34 H14        -0.0731    8.5542   11.8040 H         1 BSB         0.0557
@<TRIPOS>BOND
     1    1    6 ar 
     2    1    2 ar 
     3    2    3 ar 
     4    3   11 1  
     5    3    4 ar 
     6    4    5 ar 
     7    5    6 ar 
     8    6    7 1  
     9    7    9 am 
    10    7    8 2  
    11    9   10 1  
    12   10   15 1  
    13   15   20 ar 
    14   15   16 ar 
    15   16   17 ar 
    16   17   18 ar 
    17   18   19 ar 
    18   19   20 ar 
    19   11   14 2  
    20   11   13 2  
    21   11   12 am 
    22    1   21 1  
    23    2   22 1  
    24    4   23 1  
    25    5   24 1  
    26    9   25 1  
    27   10   26 1  
    28   10   27 1  
    29   12   28 1  
    30   12   29 1  
    31   16   30 1  
    32   17   31 1  
    33   18   32 1  
    34   19   33 1  
    35   20   34 1  
@<TRIPOS>SUBSTRUCTURE
     1 BSB         1

