### 
### Created by X-TOOL on Mon Sep 10 21:12:49 2018
### 

@<TRIPOS>MOLECULE
1g50_ligand
   44    47     1     0     0
SMALL
GAST_HUCK


@<TRIPOS>ATOM
      1 C1        104.0100   17.3780   24.9290 C.ar      1 EST        -0.0749
      2 C2        102.8460   17.9870   25.5110 C.ar      1 EST        -0.0468
      3 C3        101.5290   17.4880   25.1790 C.ar      1 EST         0.0739
      4 O3        100.3780   18.0690   25.7290 O.3       1 EST        -0.3393
      5 C4        101.3860   16.3980   24.2750 C.ar      1 EST        -0.0385
      6 C5        102.5170   15.7810   23.6850 C.ar      1 EST        -0.0491
      7 C6        102.2810   14.6270   22.7180 C.3       1 EST        -0.0236
      8 C7        103.5620   13.9870   22.0720 C.3       1 EST        -0.0396
      9 C8        104.8120   14.0540   22.9540 C.3       1 EST        -0.0259
     10 C9        105.1190   15.5650   23.3380 C.3       1 EST        -0.0116
     11 C10       103.8780   16.2620   24.0080 C.ar      1 EST        -0.0484
     12 C11       106.4090   15.5880   24.2050 C.3       1 EST        -0.0421
     13 C12       107.6470   14.9140   23.5370 C.3       1 EST        -0.0433
     14 C13       107.3650   13.4590   23.1300 C.3       1 EST        -0.0028
     15 C14       106.0610   13.4280   22.2360 C.3       1 EST        -0.0285
     16 C15       106.0620   11.9820   21.7250 C.3       1 EST        -0.0469
     17 C16       107.5710   11.7490   21.3410 C.3       1 EST        -0.0261
     18 C17       108.3520   12.8450   22.1120 C.3       1 EST         0.0609
     19 O17       109.5470   12.2750   22.6740 O.3       1 EST        -0.3912
     20 C18       107.3140   12.5550   24.4260 C.3       1 EST        -0.0569
     21 H1        104.9953   17.7544   25.1792 H         1 EST         0.0511
     22 H2        102.9543   18.8188   26.1976 H         1 EST         0.0468
     23 H3        100.4101   17.9977   26.6757 H         1 EST         0.2457
     24 H4        100.3942   16.0333   24.0335 H         1 EST         0.0462
     25 H5        101.6441   14.9986   21.9017 H         1 EST         0.0410
     26 H6        101.7501   13.8343   23.2654 H         1 EST         0.0410
     27 H7        103.7750   14.5164   21.1316 H         1 EST         0.0290
     28 H8        103.3481   12.9296   21.8572 H         1 EST         0.0290
     29 H9        104.6185   13.4855   23.8756 H         1 EST         0.0326
     30 H10       105.3321   16.1164   22.4104 H         1 EST         0.0429
     31 H11       106.1988   15.0628   25.1484 H         1 EST         0.0286
     32 H12       106.6617   16.6372   24.4178 H         1 EST         0.0286
     33 H13       108.4850   14.9267   24.2494 H         1 EST         0.0273
     34 H14       107.9207   15.4867   22.6386 H         1 EST         0.0273
     35 H15       106.2256   14.0705   21.3584 H         1 EST         0.0311
     36 H16       105.4082   11.8714   20.8473 H         1 EST         0.0269
     37 H17       105.7410   11.2835   22.5117 H         1 EST         0.0269
     38 H18       107.7162   11.8607   20.2564 H         1 EST         0.0290
     39 H19       107.8998   10.7470   21.6537 H         1 EST         0.0290
     40 H20       108.6582   13.6361   21.4117 H         1 EST         0.0599
     41 H21       110.0905   11.9296   21.9755 H         1 EST         0.2098
     42 H22       106.6113   12.9923   25.1506 H         1 EST         0.0236
     43 H23       108.3168   12.5005   24.8748 H         1 EST         0.0236
     44 H24       106.9783   11.5433   24.1544 H         1 EST         0.0236
@<TRIPOS>BOND
     1    1    2 ar 
     2    1   11 ar 
     3    2    3 ar 
     4    3    4 1  
     5    3    5 ar 
     6    5    6 ar 
     7    6    7 1  
     8    6   11 ar 
     9    7    8 1  
    10    8    9 1  
    11    9   10 1  
    12    9   15 1  
    13   10   11 1  
    14   10   12 1  
    15   12   13 1  
    16   13   14 1  
    17   14   15 1  
    18   14   18 1  
    19   14   20 1  
    20   15   16 1  
    21   16   17 1  
    22   17   18 1  
    23   18   19 1  
    24    1   21 1  
    25    2   22 1  
    26    4   23 1  
    27    5   24 1  
    28    7   25 1  
    29    7   26 1  
    30    8   27 1  
    31    8   28 1  
    32    9   29 1  
    33   10   30 1  
    34   12   31 1  
    35   12   32 1  
    36   13   33 1  
    37   13   34 1  
    38   15   35 1  
    39   16   36 1  
    40   16   37 1  
    41   17   38 1  
    42   17   39 1  
    43   18   40 1  
    44   19   41 1  
    45   20   42 1  
    46   20   43 1  
    47   20   44 1  
@<TRIPOS>SUBSTRUCTURE
     1 EST         1

