### 
### Created by X-TOOL on Mon Sep 10 21:12:47 2018
### 

@<TRIPOS>MOLECULE
1g52_ligand
   34    35     1     0     0
SMALL
GAST_HUCK


@<TRIPOS>ATOM
      1 C01        -3.8210    3.4480   14.5380 C.ar      1 F2B        -0.0401
      2 C02        -4.2180    2.3090   15.2750 C.ar      1 F2B        -0.0295
      3 C03        -5.5380    2.2650   15.7920 C.ar      1 F2B         0.1122
      4 C04        -6.3820    3.3640   15.5370 C.ar      1 F2B        -0.0295
      5 C05        -5.9530    4.4790   14.7950 C.ar      1 F2B        -0.0401
      6 C06        -4.6780    4.5260   14.2970 C.ar      1 F2B         0.0501
      7 C07        -4.1990    5.7150   13.5000 C.2       1 F2B         0.2067
      8 O08        -4.9770    6.6230   13.3030 O.2       1 F2B        -0.3845
      9 N09        -2.8910    5.7600   13.0110 N.am      1 F2B        -0.2755
     10 C10        -2.2370    6.8270   12.2320 C.3       1 F2B         0.0639
     11 S11        -6.0000    0.7710   16.7370 S.o2      1 F2B         0.0677
     12 NP2        -5.5220   -0.5230   16.0450 N.am      1 F2B        -0.2605
     13 O13        -7.5050    1.0540   16.8380 O.2       1 F2B        -0.1499
     14 O14        -5.4260    1.0530   18.0770 O.2       1 F2B        -0.1499
     15 C15        -1.8690    8.0320   12.9060 C.ar      1 F2B         0.0110
     16 C16        -1.5470    7.9600   14.2860 C.ar      1 F2B        -0.0640
     17 C17        -1.1740    9.1070   15.0430 C.ar      1 F2B        -0.0742
     18 C18        -1.1290   10.3510   14.3760 C.ar      1 F2B        -0.0368
     19 C19        -1.4480   10.4720   12.9820 C.ar      1 F2B         0.1588
     20 C20        -1.8230    9.2930   12.2360 C.ar      1 F2B         0.1675
     21 F21        -1.3930   11.6720   12.3880 F         1 F2B        -0.1863
     22 F22        -2.1220    9.3960   10.9340 F         1 F2B        -0.1901
     23 H1         -2.8119    3.4872   14.1440 H         1 F2B         0.0670
     24 H2         -3.5296    1.4883   15.4412 H         1 F2B         0.0649
     25 H3         -7.3941    3.3496   15.9250 H         1 F2B         0.0649
     26 H4         -6.6335    5.3037   14.6167 H         1 F2B         0.0670
     27 H5         -2.3233    4.9629   13.2167 H         1 F2B         0.1870
     28 H6         -2.9251    7.1055   11.4203 H         1 F2B         0.0674
     29 H7         -1.3181    6.4004   11.8036 H         1 F2B         0.0674
     30 H8         -5.7120   -1.4121   16.4613 H         1 F2B         0.1635
     31 H9         -5.0223   -0.4723   15.1803 H         1 F2B         0.1635
     32 H10        -1.5864    6.9969   14.7820 H         1 F2B         0.0513
     33 H11        -0.9325    9.0279   16.0968 H         1 F2B         0.0555
     34 H12        -0.8461   11.2378   14.9316 H         1 F2B         0.0536
@<TRIPOS>BOND
     1    1    6 ar 
     2    1    2 ar 
     3    2    3 ar 
     4    3   11 1  
     5    3    4 ar 
     6    4    5 ar 
     7    5    6 ar 
     8    6    7 1  
     9    7    9 am 
    10    7    8 2  
    11    9   10 1  
    12   10   15 1  
    13   15   20 ar 
    14   15   16 ar 
    15   16   17 ar 
    16   17   18 ar 
    17   18   19 ar 
    18   19   20 ar 
    19   11   14 2  
    20   11   13 2  
    21   11   12 am 
    22   20   22 1  
    23   19   21 1  
    24    1   23 1  
    25    2   24 1  
    26    4   25 1  
    27    5   26 1  
    28    9   27 1  
    29   10   28 1  
    30   10   29 1  
    31   12   30 1  
    32   12   31 1  
    33   16   32 1  
    34   17   33 1  
    35   18   34 1  
@<TRIPOS>SUBSTRUCTURE
     1 F2B         1

