### 
### Created by X-TOOL on Mon Sep 10 21:12:47 2018
### 

@<TRIPOS>MOLECULE
1g53_ligand
   34    35     1     0     0
SMALL
GAST_HUCK


@<TRIPOS>ATOM
      1 C01        -3.7680    3.4250   14.6740 C.ar      1 F6B        -0.0401
      2 C02        -4.1570    2.3160   15.4320 C.ar      1 F6B        -0.0295
      3 C03        -5.5080    2.2120   15.8600 C.ar      1 F6B         0.1122
      4 C04        -6.3880    3.2440   15.5080 C.ar      1 F6B        -0.0295
      5 C05        -5.9630    4.3370   14.7630 C.ar      1 F6B        -0.0401
      6 C06        -4.6610    4.4450   14.3310 C.ar      1 F6B         0.0501
      7 C07        -4.2310    5.6510   13.4910 C.2       1 F6B         0.2066
      8 O08        -5.1200    6.4610   13.2620 O.2       1 F6B        -0.3845
      9 N09        -2.9350    5.9180   12.9430 N.am      1 F6B        -0.2760
     10 C10        -2.6530    7.3290   12.7280 C.3       1 F6B         0.0656
     11 S11        -6.0100    0.7770   16.8160 S.o2      1 F6B         0.0677
     12 NP2        -5.5210   -0.6150   16.0610 N.am      1 F6B        -0.2605
     13 O13        -7.4390    1.0090   16.9510 O.2       1 F6B        -0.1499
     14 O14        -5.3740    0.9890   18.1060 O.2       1 F6B        -0.1499
     15 C15        -1.5610    7.9550   13.3490 C.ar      1 F6B         0.0461
     16 C16        -0.2950    7.9540   12.6830 C.ar      1 F6B         0.1334
     17 C17         0.8120    8.6020   13.3330 C.ar      1 F6B        -0.0388
     18 C18         0.6240    9.2310   14.6240 C.ar      1 F6B        -0.0723
     19 C19        -0.6590    9.2190   15.2750 C.ar      1 F6B        -0.0388
     20 C20        -1.7460    8.5840   14.6450 C.ar      1 F6B         0.1334
     21 F21        -0.1380    7.3680   11.4880 F         1 F6B        -0.1902
     22 F22        -2.9340    8.5820   15.2660 F         1 F6B        -0.1902
     23 H1         -2.7389    3.4964   14.3409 H         1 F6B         0.0670
     24 H2         -3.4381    1.5466   15.6894 H         1 F6B         0.0649
     25 H3         -7.4234    3.1884   15.8240 H         1 F6B         0.0649
     26 H4         -6.6710    5.1201   14.5172 H         1 F6B         0.0670
     27 H5         -2.2789    5.1951   12.7263 H         1 F6B         0.1869
     28 H6         -3.5506    7.8786   13.0478 H         1 F6B         0.0667
     29 H7         -2.5111    7.4571   11.6448 H         1 F6B         0.0667
     30 H8         -5.7258   -1.5042   16.4702 H         1 F6B         0.1635
     31 H9         -5.0212   -0.5657   15.1963 H         1 F6B         0.1635
     32 H10         1.7859    8.6197   12.8574 H         1 F6B         0.0551
     33 H11         1.4630    9.7184   15.1073 H         1 F6B         0.0539
     34 H12        -0.7873    9.6941   16.2408 H         1 F6B         0.0551
@<TRIPOS>BOND
     1    1    6 ar 
     2    1    2 ar 
     3    2    3 ar 
     4    3   11 1  
     5    3    4 ar 
     6    4    5 ar 
     7    5    6 ar 
     8    6    7 1  
     9    7    9 am 
    10    7    8 2  
    11    9   10 1  
    12   10   15 1  
    13   15   20 ar 
    14   15   16 ar 
    15   16   17 ar 
    16   17   18 ar 
    17   18   19 ar 
    18   19   20 ar 
    19   11   14 2  
    20   11   13 2  
    21   11   12 am 
    22   20   22 1  
    23   16   21 1  
    24    1   23 1  
    25    2   24 1  
    26    4   25 1  
    27    5   26 1  
    28    9   27 1  
    29   10   28 1  
    30   10   29 1  
    31   12   30 1  
    32   12   31 1  
    33   17   32 1  
    34   18   33 1  
    35   19   34 1  
@<TRIPOS>SUBSTRUCTURE
     1 F6B         1

