### 
### Created by X-TOOL on Mon Sep 10 21:12:47 2018
### 

@<TRIPOS>MOLECULE
1g54_ligand
   34    35     1     0     0
SMALL
GAST_HUCK


@<TRIPOS>ATOM
      1 C01        -3.4990    3.5140   14.8940 C.ar      1 FFB        -0.0401
      2 C02        -3.9700    2.4230   15.6520 C.ar      1 FFB        -0.0295
      3 C03        -5.3570    2.3000   15.9540 C.ar      1 FFB         0.1122
      4 C04        -6.1840    3.3040   15.4690 C.ar      1 FFB        -0.0295
      5 C05        -5.6860    4.3730   14.7270 C.ar      1 FFB        -0.0401
      6 C06        -4.3550    4.5030   14.4230 C.ar      1 FFB         0.0501
      7 C07        -3.8980    5.7010   13.5960 C.2       1 FFB         0.2065
      8 O08        -4.8220    6.4410   13.2880 O.2       1 FFB        -0.3845
      9 N09        -2.5810    6.0700   13.1380 N.am      1 FFB        -0.2767
     10 C10        -2.5570    7.3350   12.3420 C.3       1 FFB         0.0622
     11 S11        -5.9420    0.8710   16.9250 S.o2      1 FFB         0.0677
     12 NP2        -5.4100   -0.5200   16.1990 N.am      1 FFB        -0.2605
     13 O13        -7.3760    1.0970   16.9330 O.2       1 FFB        -0.1499
     14 O14        -5.3850    1.0630   18.2610 O.2       1 FFB        -0.1499
     15 C15        -2.2100    8.6120   12.8640 C.ar      1 FFB         0.0391
     16 C16        -2.2510    9.7780   12.0200 C.ar      1 FFB         0.1606
     17 C17        -1.9020   11.0540   12.5910 C.ar      1 FFB         0.1858
     18 C18        -1.5250   11.1470   13.9530 C.ar      1 FFB         0.1874
     19 C19        -1.4860    9.9880   14.7750 C.ar      1 FFB         0.1858
     20 C20        -1.8250    8.7280   14.2450 C.ar      1 FFB         0.1606
     21 F21        -2.6090    9.6900   10.7320 F         1 FFB        -0.1954
     22 F22        -1.9340   12.1560   11.8310 F         1 FFB        -0.1914
     23 F23        -1.2010   12.3350   14.4790 F         1 FFB        -0.1930
     24 F24        -1.1280   10.0760   16.0630 F         1 FFB        -0.1914
     25 F25        -1.7760    7.6620   15.0560 F         1 FFB        -0.1954
     26 H1         -2.4402    3.5838   14.6722 H         1 FFB         0.0670
     27 H2         -3.2727    1.6729   16.0074 H         1 FFB         0.0649
     28 H3         -7.2474    3.2549   15.6734 H         1 FFB         0.0649
     29 H4         -6.3771    5.1310   14.3766 H         1 FFB         0.0670
     30 H5         -1.7620    5.5309   13.3343 H         1 FFB         0.1868
     31 H6         -3.5734    7.4481   11.9369 H         1 FFB         0.0658
     32 H7         -1.8520    7.1517   11.5177 H         1 FFB         0.0658
     33 H8         -5.6372   -1.4094   16.5956 H         1 FFB         0.1635
     34 H9         -4.8617   -0.4701   15.3642 H         1 FFB         0.1635
@<TRIPOS>BOND
     1    1    6 ar 
     2    1    2 ar 
     3    2    3 ar 
     4    3   11 1  
     5    3    4 ar 
     6    4    5 ar 
     7    5    6 ar 
     8    6    7 1  
     9    7    9 am 
    10    7    8 2  
    11    9   10 1  
    12   10   15 1  
    13   15   20 ar 
    14   15   16 ar 
    15   16   17 ar 
    16   17   18 ar 
    17   18   19 ar 
    18   19   20 ar 
    19   11   14 2  
    20   11   13 2  
    21   11   12 am 
    22   20   25 1  
    23   19   24 1  
    24   18   23 1  
    25   17   22 1  
    26   16   21 1  
    27    1   26 1  
    28    2   27 1  
    29    4   28 1  
    30    5   29 1  
    31    9   30 1  
    32   10   31 1  
    33   10   32 1  
    34   12   33 1  
    35   12   34 1  
@<TRIPOS>SUBSTRUCTURE
     1 FFB         1

