### 
### Created by X-TOOL on Sun Sep  9 21:50:02 2018
### 

@<TRIPOS>MOLECULE
1g5f_ligand
    8     7     1     0     0
SMALL
GAST_HUCK


@<TRIPOS>ATOM
      1 CL1         8.9790   25.4740   26.7370 Cl        1 NON        -0.1242
      2 C1          7.4410   24.9740   26.0280 C.3       1 NON         0.0360
      3 C2          7.3380   25.5240   24.5950 C.3       1 NON         0.0360
      4 CL2         7.1130   24.1880   23.4610 Cl        1 NON        -0.1242
      5 H           6.6118   25.3689   26.6334 H         1 NON         0.0441
      6 H           7.3872   23.8756   26.0045 H         1 NON         0.0441
      7 H           8.2618   26.0656   24.3436 H         1 NON         0.0441
      8 H           6.4807   26.2099   24.5270 H         1 NON         0.0441
@<TRIPOS>BOND
     1    1    2 1  
     2    2    3 1  
     3    3    4 1  
     4    2    5 1  
     5    2    6 1  
     6    3    7 1  
     7    3    8 1  
@<TRIPOS>SUBSTRUCTURE
     1 NON         1

