### 
### Created by X-TOOL on Mon Sep 10 21:12:48 2018
### 

@<TRIPOS>MOLECULE
1g5s_ligand
   62    66     1     0     0
SMALL
GAST_HUCK


@<TRIPOS>ATOM
      1 C26        15.2920   -8.9720   14.5730 C.3       1 I17         0.0704
      2 N9         13.9860   -9.6460   14.3440 N.pl3     1 I17        -0.2242
      3 C4         13.2900   -9.6290   13.1580 C.ar      1 I17         0.1424
      4 N3         13.6950   -8.9990   12.0310 N.ar      1 I17        -0.2645
      5 C2         12.8800   -9.1210   11.0260 C.ar      1 I17         0.1544
      6 C6         11.2420  -10.4870   12.2370 C.ar      1 I17         0.1222
      7 N1         11.6760   -9.8340   11.0710 N.ar      1 I17        -0.2560
      8 C5         12.1360  -10.3780   13.3880 C.ar      1 I17         0.0919
      9 N7         12.0860  -10.8500   14.6690 N.2       1 I17        -0.3043
     10 C8         13.2100  -10.4040   15.2430 C.2       1 I17         0.1048
     11 N18        10.0010  -11.1980   12.2600 N.pl3     1 I17        -0.2919
     12 C19         9.1990  -11.2030   11.0400 C.3       1 I17         0.0632
     13 C25         7.8770  -13.1410   10.9730 C.ar      1 I17        -0.0584
     14 C24         7.4600  -14.3220   10.3330 C.ar      1 I17        -0.0685
     15 C23         7.9940  -14.6880    9.1090 C.ar      1 I17        -0.0687
     16 C22         8.9610  -13.8680    8.5030 C.ar      1 I17        -0.0685
     17 C21         9.3790  -12.6730    9.1510 C.ar      1 I17        -0.0584
     18 C20         8.8330  -12.3300   10.3740 C.ar      1 I17        -0.0206
     19 N10        13.2260   -8.3960    9.7540 N.pl3     1 I17        -0.2945
     20 C11        14.4790   -7.4500    9.6590 C.3       1 I17         0.0410
     21 C14        14.9430   -4.6260    8.8490 C.3       1 I17        -0.0242
     22 C15        15.1240   -5.0890   10.2750 C.3       1 I17        -0.0077
     23 C16        14.2460   -6.3010   10.5880 C.3       1 I17        -0.0247
     24 C12        14.5380   -7.0420    8.0960 C.3       1 I17        -0.0247
     25 C13        15.3530   -5.7490    7.9380 C.3       1 I17        -0.0077
     26 N17        15.8210   -3.4180    8.5840 N.4       1 I17         0.2207
     27 C30        16.5920   -8.9840   13.8290 C.3       1 I17        -0.0226
     28 C29        17.0640   -7.6070   13.7800 C.3       1 I17        -0.0502
     29 C27        15.1000   -7.4710   14.8510 C.3       1 I17        -0.0226
     30 C28        16.5040   -6.9930   14.9450 C.3       1 I17        -0.0502
     31 H1         15.5793   -9.4284   15.5317 H         1 I17         0.0648
     32 H2         13.4899  -10.6024   16.2766 H         1 I17         0.1309
     33 H3          9.6841  -11.6895   13.1079 H         1 I17         0.1883
     34 H4          9.7587  -10.5961   10.3131 H         1 I17         0.0689
     35 H5          8.2600  -10.6918   11.2987 H         1 I17         0.0689
     36 H6          7.4534  -12.8641   11.9316 H         1 I17         0.0557
     37 H7          6.7132  -14.9519   10.8026 H         1 I17         0.0599
     38 H8          7.6686  -15.6001    8.6220 H         1 I17         0.0559
     39 H9          9.3867  -14.1452    7.5454 H         1 I17         0.0599
     40 H10        10.1223  -12.0340    8.6881 H         1 I17         0.0557
     41 H11        12.6277   -8.5222    8.9251 H         1 I17         0.1848
     42 H12        15.4026   -7.9726    9.9485 H         1 I17         0.0558
     43 H13        13.8896   -4.3634    8.6717 H         1 I17         0.0850
     44 H14        14.8537   -4.2672   10.9544 H         1 I17         0.0320
     45 H15        16.1781   -5.3619   10.4308 H         1 I17         0.0320
     46 H16        14.4597   -6.6322   11.6149 H         1 I17         0.0290
     47 H17        13.1913   -5.9980   10.5124 H         1 I17         0.0290
     48 H18        13.5170   -6.8808    7.7197 H         1 I17         0.0290
     49 H19        15.0166   -7.8500    7.5233 H         1 I17         0.0290
     50 H20        16.4086   -5.9840    8.1393 H         1 I17         0.0320
     51 H21        15.2460   -5.4027    6.8995 H         1 I17         0.0320
     52 H22        15.5476   -2.6636    9.1941 H         1 I17         0.1997
     53 H23        15.7145   -3.1293    7.6241 H         1 I17         0.1997
     54 H24        16.7844   -3.6582    8.7577 H         1 I17         0.1997
     55 H25        16.4409   -9.3686   12.8096 H         1 I17         0.0295
     56 H26        17.3229   -9.6159   14.3547 H         1 I17         0.0295
     57 H27        16.7077   -7.1063   12.8677 H         1 I17         0.0266
     58 H28        18.1629   -7.5716   13.8124 H         1 I17         0.0266
     59 H29        14.5573   -7.3051   15.7933 H         1 I17         0.0295
     60 H30        14.5639   -6.9772   14.0272 H         1 I17         0.0295
     61 H31        16.5641   -5.8958   14.8951 H         1 I17         0.0266
     62 H32        16.9928   -7.3456   15.8652 H         1 I17         0.0266
@<TRIPOS>BOND
     1    2    1 1  
     2    1   27 1  
     3    1   29 1  
     4    3    2 1  
     5    2   10 1  
     6    4    3 ar 
     7    3    8 ar 
     8    5    4 ar 
     9    5    7 ar 
    10   19    5 1  
    11    7    6 ar 
    12    6    8 ar 
    13    6   11 1  
    14    8    9 1  
    15    9   10 2  
    16   11   12 1  
    17   12   18 1  
    18   13   14 ar 
    19   18   13 ar 
    20   14   15 ar 
    21   16   15 ar 
    22   17   16 ar 
    23   18   17 ar 
    24   20   19 1  
    25   23   20 1  
    26   20   24 1  
    27   22   21 1  
    28   21   25 1  
    29   21   26 1  
    30   22   23 1  
    31   24   25 1  
    32   27   28 1  
    33   28   30 1  
    34   29   30 1  
    35    1   31 1  
    36   10   32 1  
    37   11   33 1  
    38   12   34 1  
    39   12   35 1  
    40   13   36 1  
    41   14   37 1  
    42   15   38 1  
    43   16   39 1  
    44   17   40 1  
    45   19   41 1  
    46   20   42 1  
    47   21   43 1  
    48   22   44 1  
    49   22   45 1  
    50   23   46 1  
    51   23   47 1  
    52   24   48 1  
    53   24   49 1  
    54   25   50 1  
    55   25   51 1  
    56   26   52 1  
    57   26   53 1  
    58   26   54 1  
    59   27   55 1  
    60   27   56 1  
    61   28   57 1  
    62   28   58 1  
    63   29   59 1  
    64   29   60 1  
    65   30   61 1  
    66   30   62 1  
@<TRIPOS>SUBSTRUCTURE
     1 I17         1

