### 
### Created by X-TOOL on Mon Sep 10 21:12:50 2018
### 

@<TRIPOS>MOLECULE
1g74_ligand
   53    52     1     0     0
SMALL
GAST_HUCK


@<TRIPOS>ATOM
      1 C1        -49.3100   66.7060  -12.0240 C.2       1 OLA         0.0348
      2 O1        -49.8630   67.5500  -12.7240 O.co2     1 OLA        -0.5690
      3 O2        -49.2590   65.5400  -12.3780 O.co2     1 OLA        -0.5690
      4 C2        -48.6860   67.0870  -10.7120 C.3       1 OLA         0.0002
      5 C3        -47.2540   67.5360  -10.9030 C.3       1 OLA        -0.0414
      6 C4        -46.5990   67.9150   -9.6010 C.3       1 OLA        -0.0515
      7 C5        -45.4230   66.9660   -9.3680 C.3       1 OLA        -0.0528
      8 C6        -45.8350   65.7410   -8.5460 C.3       1 OLA        -0.0515
      9 C7        -45.9060   66.0990   -7.0750 C.3       1 OLA        -0.0464
     10 C8        -44.5580   66.2530   -6.4030 C.3       1 OLA        -0.0365
     11 C9        -44.8620   66.6500   -5.0530 C.2       1 OLA        -0.0987
     12 C10       -44.9200   67.9780   -4.5750 C.2       1 OLA        -0.0987
     13 C11       -44.6790   69.2080   -5.3240 C.3       1 OLA        -0.0365
     14 C12       -45.9140   69.6490   -6.0680 C.3       1 OLA        -0.0464
     15 C13       -45.6410   70.9150   -6.8340 C.3       1 OLA        -0.0515
     16 C14       -46.8790   71.3370   -7.6050 C.3       1 OLA        -0.0529
     17 C15       -47.7610   72.3150   -6.8270 C.3       1 OLA        -0.0531
     18 C16       -48.9990   72.6670   -7.6460 C.3       1 OLA        -0.0533
     19 C17       -50.0060   71.5170   -7.7850 C.3       1 OLA        -0.0559
     20 C18       -51.1880   71.9810   -8.6310 C.3       1 OLA        -0.0653
     21 H1        -48.7035   66.2170  -10.0392 H         1 OLA         0.0430
     22 H2        -49.2639   67.9087  -10.2639 H         1 OLA         0.0430
     23 H3        -47.2425   68.4086  -11.5726 H         1 OLA         0.0283
     24 H4        -46.6832   66.7148  -11.3610 H         1 OLA         0.0283
     25 H5        -47.3228   67.8210   -8.7781 H         1 OLA         0.0266
     26 H6        -46.2365   68.9522   -9.6538 H         1 OLA         0.0266
     27 H7        -44.6308   67.5063   -8.8291 H         1 OLA         0.0265
     28 H8        -45.0394   66.6285  -10.3421 H         1 OLA         0.0265
     29 H9        -45.0943   64.9406   -8.6900 H         1 OLA         0.0267
     30 H10       -46.8222   65.3921   -8.8833 H         1 OLA         0.0267
     31 H11       -46.4613   65.3051   -6.5541 H         1 OLA         0.0285
     32 H12       -46.4493   67.0506   -6.9783 H         1 OLA         0.0285
     33 H13       -43.9593   67.0252   -6.9082 H         1 OLA         0.0388
     34 H14       -44.0095   65.2995   -6.4120 H         1 OLA         0.0388
     35 H15       -45.0654   65.8557   -4.3364 H         1 OLA         0.0450
     36 H16       -45.1747   68.0987   -3.5231 H         1 OLA         0.0450
     37 H17       -43.8685   69.0340   -6.0470 H         1 OLA         0.0388
     38 H18       -44.3809   70.0015   -4.6230 H         1 OLA         0.0388
     39 H19       -46.7259   69.8290   -5.3480 H         1 OLA         0.0285
     40 H20       -46.2156   68.8582   -6.7706 H         1 OLA         0.0285
     41 H21       -44.8148   70.7422   -7.5393 H         1 OLA         0.0267
     42 H22       -45.3615   71.7128   -6.1301 H         1 OLA         0.0267
     43 H23       -47.4708   70.4393   -7.8371 H         1 OLA         0.0265
     44 H24       -46.5618   71.8193   -8.5413 H         1 OLA         0.0265
     45 H25       -47.1907   73.2318   -6.6169 H         1 OLA         0.0265
     46 H26       -48.0713   71.8508   -5.8792 H         1 OLA         0.0265
     47 H27       -48.6735   72.9648   -8.6536 H         1 OLA         0.0265
     48 H28       -49.5061   73.5132   -7.1594 H         1 OLA         0.0265
     49 H29       -50.3625   71.2183   -6.7882 H         1 OLA         0.0263
     50 H30       -49.5194   70.6594   -8.2726 H         1 OLA         0.0263
     51 H31       -51.9115   71.1587   -8.7324 H         1 OLA         0.0230
     52 H32       -50.8308   72.2799   -9.6275 H         1 OLA         0.0230
     53 H33       -51.6739   72.8388   -8.1430 H         1 OLA         0.0230
@<TRIPOS>BOND
     1    1    2 ar 
     2    1    3 ar 
     3    1    4 1  
     4    4    5 1  
     5    5    6 1  
     6    6    7 1  
     7    7    8 1  
     8    8    9 1  
     9    9   10 1  
    10   10   11 1  
    11   11   12 2  
    12   12   13 1  
    13   13   14 1  
    14   14   15 1  
    15   15   16 1  
    16   16   17 1  
    17   17   18 1  
    18   18   19 1  
    19   19   20 1  
    20    4   21 1  
    21    4   22 1  
    22    5   23 1  
    23    5   24 1  
    24    6   25 1  
    25    6   26 1  
    26    7   27 1  
    27    7   28 1  
    28    8   29 1  
    29    8   30 1  
    30    9   31 1  
    31    9   32 1  
    32   10   33 1  
    33   10   34 1  
    34   11   35 1  
    35   12   36 1  
    36   13   37 1  
    37   13   38 1  
    38   14   39 1  
    39   14   40 1  
    40   15   41 1  
    41   15   42 1  
    42   16   43 1  
    43   16   44 1  
    44   17   45 1  
    45   17   46 1  
    46   18   47 1  
    47   18   48 1  
    48   19   49 1  
    49   19   50 1  
    50   20   51 1  
    51   20   52 1  
    52   20   53 1  
@<TRIPOS>SUBSTRUCTURE
     1 OLA         1

