### 
### Created by X-TOOL on Mon Sep 10 21:12:48 2018
### 

@<TRIPOS>MOLECULE
1g7f_ligand
   69    70     1     0     0
SMALL
GAST_HUCK


@<TRIPOS>ATOM
      1 C1         16.6310   16.9120   13.4640 C.2       1 INZ         0.0824
      2 O2         17.1120   17.6660   14.4430 O.co2     1 INZ        -0.5643
      3 O3         17.2430   16.1470   12.7730 O.co2     1 INZ        -0.5643
      4 C4         13.6200   16.8450   11.3700 C.ar      1 INZ         0.0890
      5 C5         13.5290   16.6220    9.9840 C.ar      1 INZ        -0.0393
      6 C6         12.3420   16.7780    9.2870 C.ar      1 INZ        -0.0685
      7 C7         11.1940   17.1850    9.9980 C.ar      1 INZ        -0.0493
      8 C8         11.2680   17.4300   11.3780 C.ar      1 INZ        -0.0685
      9 C9         12.4780   17.2570   12.0860 C.ar      1 INZ        -0.0393
     10 C10        15.1150   17.1000   13.2920 C.3       1 INZ         0.1832
     11 C11         9.9130   17.3420    9.2260 C.3       1 INZ         0.0161
     12 C12         9.2290   18.7380    9.4000 C.3       1 INZ         0.1392
     13 O13        14.8490   16.6270   11.9350 O.3       1 INZ        -0.2911
     14 C14        14.4610   16.2480   14.3920 C.2       1 INZ         0.0824
     15 O15        14.3100   16.6620   15.5300 O.co2     1 INZ        -0.5643
     16 O16        14.1010   15.0110   14.0240 O.co2     1 INZ        -0.5643
     17 N17         7.9790   18.6660    8.6490 N.am      1 INZ        -0.2502
     18 C18        10.0600   19.8290    8.6770 C.2       1 INZ         0.2032
     19 C19         6.9170   19.3130    9.1300 C.2       1 INZ         0.2616
     20 N20        10.0390   19.7240    7.3360 N.am      1 INZ        -0.2849
     21 O21        10.8760   20.4850    9.3260 O.2       1 INZ        -0.3944
     22 C22        10.9840   20.3800    6.4460 C.3       1 INZ         0.0310
     23 C23        11.3500   19.4360    5.2790 C.3       1 INZ        -0.0328
     24 C24        11.5130   17.9500    5.7330 C.3       1 INZ        -0.0515
     25 C25        11.7960   17.0300    4.5220 C.3       1 INZ        -0.0558
     26 C26        13.2900   16.7550    4.4290 C.3       1 INZ        -0.0653
     27 O27         7.0490   20.2070   10.0260 O.2       1 INZ        -0.4006
     28 N28         5.7550   19.0040    8.5570 N.am      1 INZ        -0.2557
     29 C29         4.5540   19.7560    8.9600 C.3       1 INZ         0.1042
     30 C30         4.4420   21.0060    8.0080 C.3       1 INZ         0.0157
     31 C31         3.3390   18.8360    8.8500 C.2       1 INZ         0.0619
     32 O32         3.6810   17.5840    8.5010 O.co2     1 INZ        -0.5665
     33 O33         2.2300   19.1760    9.1390 O.co2     1 INZ        -0.5665
     34 C34         4.1860   20.5930    6.5620 C.ar      1 INZ        -0.0392
     35 C35         5.2330   20.1830    5.7240 C.ar      1 INZ        -0.0602
     36 C36         4.9830   19.7950    4.3870 C.ar      1 INZ        -0.0686
     37 C37         3.6800   19.8200    3.8940 C.ar      1 INZ        -0.0687
     38 C38         2.6250   20.2300    4.7190 C.ar      1 INZ        -0.0686
     39 C39         2.8770   20.6170    6.0510 C.ar      1 INZ        -0.0602
     40 H1         14.4178   16.3178    9.4431 H         1 INZ         0.0525
     41 H2         12.2966   16.5916    8.2201 H         1 INZ         0.0530
     42 H3         10.3817   17.7575   11.9094 H         1 INZ         0.0530
     43 H4         12.5271   17.4367   13.1539 H         1 INZ         0.0525
     44 H5         14.8125   18.1522   13.3982 H         1 INZ         0.0989
     45 H6          9.2087   16.5678    9.5644 H         1 INZ         0.0452
     46 H7         10.1331   17.1960    8.1582 H         1 INZ         0.0452
     47 H8          9.0718   18.9813   10.4612 H         1 INZ         0.0818
     48 H9          7.9209   18.1456    7.7971 H         1 INZ         0.1878
     49 H10         9.3260   19.1570    6.9235 H         1 INZ         0.1851
     50 H11        11.8949   20.6369    7.0066 H         1 INZ         0.0520
     51 H12        10.5297   21.2976    6.0440 H         1 INZ         0.0520
     52 H13        12.2985   19.7747    4.8367 H         1 INZ         0.0285
     53 H14        10.5535   19.4872    4.5221 H         1 INZ         0.0285
     54 H15        10.5868   17.6207    6.2266 H         1 INZ         0.0266
     55 H16        12.3512   17.8800    6.4419 H         1 INZ         0.0266
     56 H17        11.4564   17.5238    3.5996 H         1 INZ         0.0263
     57 H18        11.2561   16.0802    4.6495 H         1 INZ         0.0263
     58 H19        13.4894   16.1008    3.5675 H         1 INZ         0.0230
     59 H20        13.6300   16.2609    5.3511 H         1 INZ         0.0230
     60 H21        13.8304   17.7045    4.3011 H         1 INZ         0.0230
     61 H22         5.6992   18.2794    7.8701 H         1 INZ         0.1871
     62 H23         4.6538   20.0977   10.0008 H         1 INZ         0.0746
     63 H24         5.3821   21.5752    8.0550 H         1 INZ         0.0466
     64 H25         3.6113   21.6410    8.3497 H         1 INZ         0.0466
     65 H26         6.2473   20.1632    6.1059 H         1 INZ         0.0557
     66 H27         5.8009   19.4798    3.7492 H         1 INZ         0.0599
     67 H28         3.4826   19.5218    2.8707 H         1 INZ         0.0559
     68 H29         1.6125   20.2498    4.3324 H         1 INZ         0.0599
     69 H30         2.0567   20.9348    6.6844 H         1 INZ         0.0557
@<TRIPOS>BOND
     1    1   10 1  
     2    1    3 ar 
     3    1    2 ar 
     4   10   14 1  
     5   10   13 1  
     6   13    4 1  
     7    4    9 ar 
     8    4    5 ar 
     9    5    6 ar 
    10    6    7 ar 
    11    7   11 1  
    12    7    8 ar 
    13    8    9 ar 
    14   11   12 1  
    15   12   17 1  
    16   12   18 1  
    17   18   20 am 
    18   18   21 2  
    19   20   22 1  
    20   22   23 1  
    21   23   24 1  
    22   24   25 1  
    23   25   26 1  
    24   17   19 am 
    25   19   28 am 
    26   19   27 2  
    27   28   29 1  
    28   29   31 1  
    29   29   30 1  
    30   30   34 1  
    31   34   39 ar 
    32   34   35 ar 
    33   35   36 ar 
    34   36   37 ar 
    35   37   38 ar 
    36   38   39 ar 
    37   31   33 ar 
    38   31   32 ar 
    39   14   16 ar 
    40   14   15 ar 
    41    5   40 1  
    42    6   41 1  
    43    8   42 1  
    44    9   43 1  
    45   10   44 1  
    46   11   45 1  
    47   11   46 1  
    48   12   47 1  
    49   17   48 1  
    50   20   49 1  
    51   22   50 1  
    52   22   51 1  
    53   23   52 1  
    54   23   53 1  
    55   24   54 1  
    56   24   55 1  
    57   25   56 1  
    58   25   57 1  
    59   26   58 1  
    60   26   59 1  
    61   26   60 1  
    62   28   61 1  
    63   29   62 1  
    64   30   63 1  
    65   30   64 1  
    66   35   65 1  
    67   36   66 1  
    68   37   67 1  
    69   38   68 1  
    70   39   69 1  
@<TRIPOS>SUBSTRUCTURE
     1 INZ         1

