### 
### Created by X-TOOL on Mon Sep 10 21:12:49 2018
### 

@<TRIPOS>MOLECULE
1g7q_ligand
  112   113     1     0     0
SMALL
GAST_HUCK


@<TRIPOS>ATOM
      1 N          49.8290   57.5970    4.8090 N.4       1 SER         0.2396
      2 CA         48.5910   58.3180    4.3920 C.3       1 SER         0.0885
      3 C          48.2830   58.0060    2.9330 C.2       1 SER         0.2290
      4 O          49.1260   58.1990    2.0570 O.2       1 SER        -0.3906
      5 CB         48.7750   59.8270    4.5700 C.3       1 SER         0.1041
      6 OG         47.5700   60.5120    4.2830 O.3       1 SER        -0.3870
      7 N          47.0700   57.5220    2.6870 N.am      1 ALA        -0.2612
      8 CA         46.6310   57.1550    1.3440 C.3       1 ALA         0.1285
      9 C          46.5360   58.3690    0.4280 C.2       1 ALA         0.2061
     10 O          46.3920   59.5000    0.8910 O.2       1 ALA        -0.3942
     11 CB         45.2730   56.4460    1.4160 C.3       1 ALA        -0.0244
     12 N          46.6400   58.1500   -0.8900 N.am      1 PRO        -0.2498
     13 CA         46.5510   59.2780   -1.8210 C.3       1 PRO         0.1338
     14 C          45.0970   59.6630   -2.0610 C.2       1 PRO         0.2042
     15 O          44.1860   58.8870   -1.7670 O.2       1 PRO        -0.3944
     16 CB         47.1990   58.7240   -3.0840 C.3       1 PRO        -0.0104
     17 CG         46.7770   57.2750   -3.0470 C.3       1 PRO        -0.0281
     18 CD         47.0170   56.9090   -1.5960 C.3       1 PRO         0.0369
     19 N          44.8800   60.8660   -2.5780 N.am      1 ASP        -0.2622
     20 CA         43.5290   61.3030   -2.8970 C.3       1 ASP         0.1423
     21 C          43.2990   60.8350   -4.3250 C.2       1 ASP         0.2057
     22 O          44.1260   61.0870   -5.2000 O.2       1 ASP        -0.3943
     23 CB         43.4130   62.8280   -2.8260 C.3       1 ASP         0.0406
     24 CG         43.6800   63.3680   -1.4370 C.2       1 ASP         0.0393
     25 OD1        44.8680   63.5020   -1.0670 O.co2     1 ASP        -0.5688
     26 OD2        42.7040   63.6480   -0.7100 O.co2     1 ASP        -0.5688
     27 N          42.1990   60.1330   -4.5650 N.am      1 THR        -0.2612
     28 CA         41.9110   59.6550   -5.9110 C.3       1 THR         0.1565
     29 C          40.8090   60.4910   -6.5390 C.2       1 THR         0.2065
     30 O          39.8980   60.9530   -5.8510 O.2       1 THR        -0.3943
     31 CB         41.4800   58.1710   -5.9190 C.3       1 THR         0.0924
     32 OG1        40.3180   58.0010   -5.1000 O.3       1 THR        -0.3874
     33 CG2        42.6010   57.2890   -5.3990 C.3       1 THR        -0.0346
     34 N          40.9020   60.6870   -7.8500 N.am      1 ARG        -0.2636
     35 CA         39.9150   61.4780   -8.5710 C.3       1 ARG         0.1313
     36 C          39.3350   60.7070   -9.7520 C.2       1 ARG         0.2064
     37 O          39.9310   59.7410  -10.2200 O.2       1 ARG        -0.3942
     38 CB         40.5530   62.7970   -9.0020 C.3       1 ARG        -0.0092
     39 CG         40.8810   63.6620   -7.7990 C.3       1 ARG        -0.0156
     40 CD         42.0150   64.6390   -8.0280 C.3       1 ARG         0.0627
     41 NE         42.4480   65.2060   -6.7530 N.pl3     1 ARG        -0.2723
     42 CZ         43.4450   66.0730   -6.6100 C.cat     1 ARG         0.2882
     43 NH1        44.1280   66.4820   -7.6710 N.pl3     1 ARG        -0.2849
     44 NH2        43.7480   66.5380   -5.4050 N.pl3     1 ARG        -0.2849
     45 N          38.1460   61.1140  -10.2310 N.am      1 PRO        -0.2498
     46 CA         37.4180   60.5020  -11.3490 C.3       1 PRO         0.1337
     47 C          38.1670   60.1150  -12.6230 C.2       1 PRO         0.2035
     48 O          38.9730   60.8760  -13.1580 O.2       1 PRO        -0.3944
     49 CB         36.3080   61.5130  -11.6210 C.3       1 PRO        -0.0104
     50 CG         35.9860   61.9830  -10.2470 C.3       1 PRO        -0.0281
     51 CD         37.3640   62.2320   -9.6680 C.3       1 PRO         0.0369
     52 N          37.8550   58.9150  -13.1020 N.am      1 ALA        -0.2697
     53 CA         38.4360   58.3620  -14.3170 C.3       1 ALA         0.0916
     54 C          37.6260   58.8050  -15.5380 C.2       1 ALA         0.0598
     55 O          37.9700   58.3930  -16.6680 O.co2     1 ALA        -0.5666
     56 CB         38.4560   56.8400  -14.2240 C.3       1 ALA        -0.0300
     57 OXT        36.6490   59.5610  -15.3500 O.co2     1 ALA        -0.5666
     58 H1         50.0301   57.8054    5.7745 H         1 SER         0.2016
     59 H2         50.6011   57.8944    4.2333 H         1 SER         0.2016
     60 H3         49.6922   56.6042    4.7010 H         1 SER         0.2016
     61 H4         47.7512   57.9821    5.0181 H         1 SER         0.1122
     62 H5         49.5623   60.1785    3.8870 H         1 SER         0.0640
     63 H6         49.0709   60.0353    5.6088 H         1 SER         0.0640
     64 H7         46.8885   60.2124    4.8731 H         1 SER         0.2099
     65 H8         46.4344   57.4049    3.4501 H         1 ALA         0.1884
     66 H9         47.3688   56.4591    0.9182 H         1 ALA         0.0797
     67 H10        44.9481   56.1723    0.4014 H         1 ALA         0.0277
     68 H11        44.5311   57.1199    1.8693 H         1 ALA         0.0277
     69 H12        45.3658   55.5373    2.0289 H         1 ALA         0.0277
     70 H13        47.1041   60.1507   -1.4435 H         1 PRO         0.0802
     71 H14        48.2940   58.8219   -3.0468 H         1 PRO         0.0313
     72 H15        46.8161   59.2284   -3.9834 H         1 PRO         0.0313
     73 H16        47.3945   56.6623   -3.7203 H         1 PRO         0.0287
     74 H17        45.7167   57.1613   -3.3169 H         1 PRO         0.0287
     75 H18        48.0726   56.6553   -1.4188 H         1 PRO         0.0524
     76 H19        46.3806   56.0665   -1.2875 H         1 PRO         0.0524
     77 H20        45.6521   61.4778   -2.7499 H         1 ASP         0.1884
     78 H21        42.8011   60.8445   -2.2115 H         1 ASP         0.0819
     79 H22        42.3957   63.1184   -3.1273 H         1 ASP         0.0478
     80 H23        44.1417   63.2696   -3.5217 H         1 ASP         0.0478
     81 H24        41.5647   59.9310   -3.8187 H         1 THR         0.1884
     82 H25        42.8241   59.7569   -6.5159 H         1 THR         0.0826
     83 H26        41.2406   57.8742   -6.9508 H         1 THR         0.0639
     84 H27        40.5176   58.2665   -4.2100 H         1 THR         0.2101
     85 H28        42.2766   56.2380   -5.4120 H         1 THR         0.0257
     86 H29        42.8510   57.5829   -4.3689 H         1 THR         0.0257
     87 H30        43.4875   57.4070   -6.0394 H         1 THR         0.0257
     88 H31        41.6663   60.2825   -8.3522 H         1 ARG         0.1883
     89 H32        39.0875   61.7066   -7.8833 H         1 ARG         0.0800
     90 H33        39.8525   63.3390   -9.6543 H         1 ARG         0.0313
     91 H34        41.4796   62.5844   -9.5553 H         1 ARG         0.0313
     92 H35        41.1581   63.0014   -6.9643 H         1 ARG         0.0301
     93 H36        39.9812   64.2348   -7.5302 H         1 ARG         0.0301
     94 H37        41.6714   65.4482   -8.6891 H         1 ARG         0.0689
     95 H38        42.8591   64.1141   -8.4991 H         1 ARG         0.0689
     96 H39        41.9443   64.9126   -5.9038 H         1 ARG         0.2642
     97 H40        44.9005   67.1540   -7.5586 H         1 ARG         0.2615
     98 H41        43.8859   66.1276   -8.6073 H         1 ARG         0.2615
     99 H42        43.2171   66.2198   -4.5817 H         1 ARG         0.2615
    100 H43        44.5142   67.2172   -5.2927 H         1 ARG         0.2615
    101 H44        36.9685   59.5699  -10.9760 H         1 PRO         0.0802
    102 H45        35.4381   61.0356  -12.0957 H         1 PRO         0.0313
    103 H46        36.6640   62.3389  -12.2543 H         1 PRO         0.0313
    104 H47        35.4464   61.2122   -9.6771 H         1 PRO         0.0287
    105 H48        35.3894   62.9068  -10.2702 H         1 PRO         0.0287
    106 H49        37.3476   62.1934   -8.5688 H         1 PRO         0.0524
    107 H50        37.7644   63.2030   -9.9949 H         1 PRO         0.0524
    108 H51        37.1869   58.3638  -12.6022 H         1 ALA         0.1875
    109 H52        39.4677   58.7291  -14.4210 H         1 ALA         0.0723
    110 H53        38.8950   56.4223  -15.1421 H         1 ALA         0.0270
    111 H54        37.4282   56.4663  -14.1062 H         1 ALA         0.0270
    112 H55        39.0593   56.5335  -13.3568 H         1 ALA         0.0270
@<TRIPOS>BOND
     1    3    2 1  
     2    2    5 1  
     3    2    1 1  
     4    5    6 1  
     5    3    4 2  
     6    9    8 1  
     7    8   11 1  
     8    8    7 1  
     9    9   10 2  
    10   13   12 1  
    11   13   16 1  
    12   14   13 1  
    13   14   15 2  
    14   16   17 1  
    15   17   18 1  
    16   12   18 1  
    17   21   20 1  
    18   20   23 1  
    19   20   19 1  
    20   23   24 1  
    21   24   25 ar 
    22   24   26 ar 
    23   21   22 2  
    24   29   28 1  
    25   28   31 1  
    26   28   27 1  
    27   31   32 1  
    28   31   33 1  
    29   29   30 2  
    30   36   35 1  
    31   35   38 1  
    32   35   34 1  
    33   38   39 1  
    34   39   40 1  
    35   40   41 1  
    36   41   42 ar 
    37   42   43 ar 
    38   42   44 ar 
    39   36   37 2  
    40   46   45 1  
    41   46   49 1  
    42   47   46 1  
    43   47   48 2  
    44   49   50 1  
    45   50   51 1  
    46   45   51 1  
    47   53   54 1  
    48   53   56 1  
    49   52   53 1  
    50   54   57 ar 
    51   54   55 ar 
    52    7    3 am 
    53   12    9 am 
    54   19   14 am 
    55   27   21 am 
    56   34   29 am 
    57   45   36 am 
    58   47   52 am 
    59    1   58 1  
    60    1   59 1  
    61    1   60 1  
    62    2   61 1  
    63    5   62 1  
    64    5   63 1  
    65    6   64 1  
    66    7   65 1  
    67    8   66 1  
    68   11   67 1  
    69   11   68 1  
    70   11   69 1  
    71   13   70 1  
    72   16   71 1  
    73   16   72 1  
    74   17   73 1  
    75   17   74 1  
    76   18   75 1  
    77   18   76 1  
    78   19   77 1  
    79   20   78 1  
    80   23   79 1  
    81   23   80 1  
    82   27   81 1  
    83   28   82 1  
    84   31   83 1  
    85   32   84 1  
    86   33   85 1  
    87   33   86 1  
    88   33   87 1  
    89   34   88 1  
    90   35   89 1  
    91   38   90 1  
    92   38   91 1  
    93   39   92 1  
    94   39   93 1  
    95   40   94 1  
    96   40   95 1  
    97   41   96 1  
    98   43   97 1  
    99   43   98 1  
   100   44   99 1  
   101   44  100 1  
   102   46  101 1  
   103   49  102 1  
   104   49  103 1  
   105   50  104 1  
   106   50  105 1  
   107   51  106 1  
   108   51  107 1  
   109   52  108 1  
   110   53  109 1  
   111   56  110 1  
   112   56  111 1  
   113   56  112 1  
@<TRIPOS>SUBSTRUCTURE
     1 SER         1

