### 
### Created by X-TOOL on Mon Sep 10 21:12:49 2018
### 

@<TRIPOS>MOLECULE
1g85_ligand
   27    26     1     0     0
SMALL
GAST_HUCK


@<TRIPOS>ATOM
      1 C1         -2.0130   -1.2270    3.9210 C.3       1 3OL        -0.0629
      2 C2         -1.2750    0.0060    3.7440 C.3       1 3OL        -0.0297
      3 C3          0.2220    0.1050    3.9100 C.3       1 3OL         0.0550
      4 O1          0.6870    1.3980    3.3500 O.3       1 3OL        -0.3918
      5 C4          0.4690    0.0270    5.3980 C.3       1 3OL        -0.0269
      6 C5          0.8580   -1.3840    5.8140 C.3       1 3OL        -0.0507
      7 C6          1.2060   -1.3970    7.3140 C.3       1 3OL        -0.0532
      8 C7          0.0140   -1.7440    8.1800 C.3       1 3OL        -0.0559
      9 C8          0.2660   -3.0670    8.9470 C.3       1 3OL        -0.0653
     10 H1         -3.0832   -1.0420    3.7464 H         1 3OL         0.0231
     11 H2         -1.8675   -1.5975    4.9464 H         1 3OL         0.0231
     12 H3         -1.6491   -1.9782    3.2046 H         1 3OL         0.0231
     13 H4         -1.7061    0.7214    4.4598 H         1 3OL         0.0287
     14 H5         -1.4877    0.3406    2.7180 H         1 3OL         0.0287
     15 H6          0.7283   -0.7244    3.3946 H         1 3OL         0.0593
     16 H7          1.6291    1.4655    3.4520 H         1 3OL         0.2098
     17 H8         -0.4482    0.3188    5.9305 H         1 3OL         0.0290
     18 H9          1.2829    0.7175    5.6640 H         1 3OL         0.0290
     19 H10         1.7322   -1.7106    5.2316 H         1 3OL         0.0266
     20 H11         0.0165   -2.0671    5.6265 H         1 3OL         0.0266
     21 H12         1.5723   -0.4001    7.6003 H         1 3OL         0.0265
     22 H13         1.9968   -2.1418    7.4867 H         1 3OL         0.0265
     23 H14        -0.8751   -1.8590    7.5426 H         1 3OL         0.0263
     24 H15        -0.1559   -0.9331    8.9035 H         1 3OL         0.0263
     25 H16        -0.6097   -3.3022    9.5698 H         1 3OL         0.0230
     26 H17         1.1528   -2.9559    9.5883 H         1 3OL         0.0230
     27 H18         0.4336   -3.8819    8.2274 H         1 3OL         0.0230
@<TRIPOS>BOND
     1    1    2 1  
     2    2    3 1  
     3    3    4 1  
     4    3    5 1  
     5    5    6 1  
     6    6    7 1  
     7    7    8 1  
     8    8    9 1  
     9    1   10 1  
    10    1   11 1  
    11    1   12 1  
    12    2   13 1  
    13    2   14 1  
    14    3   15 1  
    15    4   16 1  
    16    5   17 1  
    17    5   18 1  
    18    6   19 1  
    19    6   20 1  
    20    7   21 1  
    21    7   22 1  
    22    8   23 1  
    23    8   24 1  
    24    9   25 1  
    25    9   26 1  
    26    9   27 1  
@<TRIPOS>SUBSTRUCTURE
     1 3OL         1

