### 
### Created by X-TOOL on Mon Sep 10 21:12:49 2018
### 

@<TRIPOS>MOLECULE
1g9a_ligand
   43    46     1     0     0
SMALL
GAST_HUCK


@<TRIPOS>ATOM
      1 C1         25.0410   -2.7530   29.3910 C.ar      1 BAB         0.0090
      2 C2         25.6400   -3.8640   28.7560 C.ar      1 BAB        -0.0713
      3 C3         26.5940   -3.6620   27.7320 C.ar      1 BAB        -0.0420
      4 C4         26.9040   -2.3560   27.3920 C.ar      1 BAB         0.0787
      5 C5         26.3290   -1.2940   28.0100 C.ar      1 BAB         0.0217
      6 C6         25.4000   -1.4490   29.0090 C.ar      1 BAB        -0.0601
      7 C7         24.0000   -2.9640   30.4710 C.cat     1 BAB         0.2286
      8 C8         27.8070   -0.4010   26.3910 C.2       1 BAB         0.1412
      9 C9         28.5880    0.5380   25.4950 C.3       1 BAB         0.1108
     10 N1         24.0280   -2.1620   31.7450 N.pl3     1 BAB        -0.2733
     11 N2         22.8860   -3.9480   30.2370 N.pl3     1 BAB        -0.2733
     12 N3         27.8510   -1.8870   26.3510 N.pl3     1 BAB        -0.2443
     13 N4         26.8440   -0.0180   27.4460 N.2       1 BAB        -0.3147
     14 C1'        28.6900   -1.6570   19.7250 C.ar      1 BAB         0.0111
     15 C2'        27.3120   -1.9590   19.9400 C.ar      1 BAB        -0.0732
     16 C3'        26.7250   -1.6280   21.1780 C.ar      1 BAB        -0.0653
     17 C4'        27.5350   -1.0170   22.1250 C.ar      1 BAB         0.0217
     18 C5'        28.8420   -0.7410   21.8900 C.ar      1 BAB         0.0787
     19 C6'        29.4440   -1.0360   20.7150 C.ar      1 BAB        -0.0368
     20 C7'        29.3680   -1.9990   18.4710 C.cat     1 BAB         0.2293
     21 C8'        28.4210   -0.0180   24.0840 C.2       1 BAB         0.1412
     22 N1'        30.2510   -1.0180   17.8170 N.pl3     1 BAB        -0.2731
     23 N2'        29.2900   -3.3730   17.9260 N.pl3     1 BAB        -0.2731
     24 N3'        27.1790   -0.5960   23.4960 N.2       1 BAB        -0.3147
     25 N4'        29.4630   -0.1050   23.0610 N.pl3     1 BAB        -0.2443
     26 H1         25.3684   -4.8704   29.0536 H         1 BAB         0.0529
     27 H2         27.0658   -4.4996   27.2311 H         1 BAB         0.0542
     28 H3         24.9543   -0.5866   29.4914 H         1 BAB         0.0536
     29 H4         29.6500    0.5491   25.7813 H         1 BAB         0.0794
     30 H5         28.1806    1.5579   25.5577 H         1 BAB         0.0794
     31 H6         23.3118   -2.3192   32.4683 H         1 BAB         0.3180
     32 H7         24.7634   -1.4562   31.8932 H         1 BAB         0.3180
     33 H8         22.8606   -4.5000   29.3678 H         1 BAB         0.3180
     34 H9         22.1489   -4.0696   30.9461 H         1 BAB         0.3180
     35 H10        28.4236   -2.4725   25.7264 H         1 BAB         0.2324
     36 H11        26.7255   -2.4358   19.1630 H         1 BAB         0.0516
     37 H12        25.6822   -1.8422   21.3823 H         1 BAB         0.0536
     38 H13        30.4877   -0.7945   20.5493 H         1 BAB         0.0541
     39 H14        30.7265   -1.2601   16.9360 H         1 BAB         0.3180
     40 H15        30.3929   -0.0900   18.2407 H         1 BAB         0.3180
     41 H16        28.6771   -4.0701   18.3724 H         1 BAB         0.3180
     42 H17        29.8487   -3.6320   17.1003 H         1 BAB         0.3180
     43 H18        30.4382    0.2157   23.1445 H         1 BAB         0.2324
@<TRIPOS>BOND
     1    1    2 ar 
     2    6    1 ar 
     3    1    7 1  
     4    3    2 ar 
     5    4    3 ar 
     6    5    4 ar 
     7   12    4 1  
     8    5    6 ar 
     9   13    5 1  
    10    7   10 ar 
    11    7   11 ar 
    12    9    8 1  
    13    8   12 1  
    14    8   13 2  
    15   21    9 1  
    16   15   14 ar 
    17   19   14 ar 
    18   14   20 1  
    19   16   15 ar 
    20   17   16 ar 
    21   17   18 ar 
    22   24   17 1  
    23   18   19 ar 
    24   18   25 1  
    25   20   22 ar 
    26   20   23 ar 
    27   21   24 2  
    28   21   25 1  
    29    2   26 1  
    30    3   27 1  
    31    6   28 1  
    32    9   29 1  
    33    9   30 1  
    34   10   31 1  
    35   10   32 1  
    36   11   33 1  
    37   11   34 1  
    38   12   35 1  
    39   15   36 1  
    40   16   37 1  
    41   19   38 1  
    42   22   39 1  
    43   22   40 1  
    44   23   41 1  
    45   23   42 1  
    46   25   43 1  
@<TRIPOS>SUBSTRUCTURE
     1 BAB         1

