### 
### Created by X-TOOL on Mon Sep 10 21:12:49 2018
### 

@<TRIPOS>MOLECULE
1g9b_ligand
   43    46     1     0     0
SMALL
GAST_HUCK


@<TRIPOS>ATOM
      1 C1         12.8410    1.3410   29.5740 C.ar      1 BAB         0.0090
      2 C2         12.2500    2.4840   28.9790 C.ar      1 BAB        -0.0713
      3 C3         11.3140    2.3410   27.9310 C.ar      1 BAB        -0.0420
      4 C4         11.0030    1.0590   27.5180 C.ar      1 BAB         0.0787
      5 C5         11.5710   -0.0410   28.0940 C.ar      1 BAB         0.0217
      6 C6         12.4880    0.0580   29.1200 C.ar      1 BAB        -0.0601
      7 C7         13.8560    1.4900   30.6950 C.cat     1 BAB         0.2286
      8 C8         10.1100   -0.8360   26.4150 C.2       1 BAB         0.1412
      9 C9          9.3320   -1.7390   25.4770 C.3       1 BAB         0.1108
     10 N1         13.6800    0.7300   31.9790 N.pl3     1 BAB        -0.2733
     11 N2         15.0560    2.3680   30.5070 N.pl3     1 BAB        -0.2733
     12 N3         10.0650    0.6450   26.4440 N.pl3     1 BAB        -0.2443
     13 N4         11.0590   -1.2770   27.4570 N.2       1 BAB        -0.3147
     14 C1'         9.1900    0.3380   19.6430 C.ar      1 BAB         0.0111
     15 C2'        10.5760    0.5930   19.8470 C.ar      1 BAB        -0.0732
     16 C3'        11.1740    0.2750   21.0890 C.ar      1 BAB        -0.0653
     17 C4'        10.3660   -0.2770   22.0660 C.ar      1 BAB         0.0217
     18 C5'         9.0420   -0.5170   21.8530 C.ar      1 BAB         0.0787
     19 C6'         8.4280   -0.2260   20.6680 C.ar      1 BAB        -0.0368
     20 C7'         8.5060    0.6840   18.3450 C.cat     1 BAB         0.2293
     21 C8'         9.4920   -1.2060   24.0610 C.2       1 BAB         0.1412
     22 N1'         7.5130   -0.2280   17.7270 N.pl3     1 BAB        -0.2731
     23 N2'         8.7150    2.0060   17.7170 N.pl3     1 BAB        -0.2731
     24 N3'        10.7350   -0.6860   23.4410 N.2       1 BAB        -0.3147
     25 N4'         8.4230   -1.1020   23.0540 N.pl3     1 BAB        -0.2443
     26 H1         12.5181    3.4738   29.3305 H         1 BAB         0.0529
     27 H2         10.8554    3.2065   27.4667 H         1 BAB         0.0542
     28 H3         12.9245   -0.8293   29.5641 H         1 BAB         0.0536
     29 H4          8.2682   -1.7384   25.7569 H         1 BAB         0.0794
     30 H5          9.7260   -2.7643   25.5354 H         1 BAB         0.0794
     31 H6         14.3696    0.8330   32.7371 H         1 BAB         0.3180
     32 H7         12.8697    0.1060   32.1012 H         1 BAB         0.3180
     33 H8         15.1794    2.8902   29.6278 H         1 BAB         0.3180
     34 H9         15.7573    2.4492   31.2570 H         1 BAB         0.3180
     35 H10         9.4992    1.2607   25.8426 H         1 BAB         0.2324
     36 H11        11.1711    1.0295   19.0530 H         1 BAB         0.0516
     37 H12        12.2274    0.4574   21.2683 H         1 BAB         0.0536
     38 H13         7.3725   -0.4285   20.5266 H         1 BAB         0.0541
     39 H14         7.0588    0.0305   16.8394 H         1 BAB         0.3180
     40 H15         7.2776   -1.1198   18.1854 H         1 BAB         0.3180
     41 H16         9.3967    2.6652   18.1191 H         1 BAB         0.3180
     42 H17         8.1789    2.2679   16.8774 H         1 BAB         0.3180
     43 H18         7.4384   -1.3826   23.1671 H         1 BAB         0.2324
@<TRIPOS>BOND
     1    1    2 ar 
     2    6    1 ar 
     3    1    7 1  
     4    3    2 ar 
     5    4    3 ar 
     6    5    4 ar 
     7   12    4 1  
     8    5    6 ar 
     9   13    5 1  
    10    7   10 ar 
    11    7   11 ar 
    12    9    8 1  
    13    8   12 1  
    14    8   13 2  
    15   21    9 1  
    16   15   14 ar 
    17   19   14 ar 
    18   14   20 1  
    19   16   15 ar 
    20   17   16 ar 
    21   17   18 ar 
    22   24   17 1  
    23   18   19 ar 
    24   18   25 1  
    25   20   22 ar 
    26   20   23 ar 
    27   21   24 2  
    28   21   25 1  
    29    2   26 1  
    30    3   27 1  
    31    6   28 1  
    32    9   29 1  
    33    9   30 1  
    34   10   31 1  
    35   10   32 1  
    36   11   33 1  
    37   11   34 1  
    38   12   35 1  
    39   15   36 1  
    40   16   37 1  
    41   19   38 1  
    42   22   39 1  
    43   22   40 1  
    44   23   41 1  
    45   23   42 1  
    46   25   43 1  
@<TRIPOS>SUBSTRUCTURE
     1 BAB         1

