### 
### Created by X-TOOL on Mon Sep 10 21:12:49 2018
### 

@<TRIPOS>MOLECULE
1g9c_ligand
   43    46     1     0     0
SMALL
GAST_HUCK


@<TRIPOS>ATOM
      1 C1         12.0200    1.4170   29.7820 C.ar      1 BAB         0.0090
      2 C2         11.3870    2.5150   29.1390 C.ar      1 BAB        -0.0713
      3 C3         10.5820    2.2990   28.0030 C.ar      1 BAB        -0.0420
      4 C4         10.4430    0.9980   27.5570 C.ar      1 BAB         0.0787
      5 C5         11.0560   -0.0560   28.1860 C.ar      1 BAB         0.0217
      6 C6         11.8460    0.1140   29.2930 C.ar      1 BAB        -0.0601
      7 C7         12.8900    1.6380   30.9990 C.cat     1 BAB         0.2286
      8 C8          9.8540   -0.9640   26.3700 C.2       1 BAB         0.1412
      9 C9          9.2670   -1.9180   25.3660 C.3       1 BAB         0.1108
     10 N1         12.2610    1.8600   32.3390 N.pl3     1 BAB        -0.2733
     11 N2         14.3860    1.6250   30.8600 N.pl3     1 BAB        -0.2733
     12 N3          9.6610    0.5070   26.3940 N.pl3     1 BAB        -0.2443
     13 N4         10.7320   -1.3300   27.4960 N.2       1 BAB        -0.3147
     14 C1'         9.4270    0.2550   19.5910 C.ar      1 BAB         0.0111
     15 C2'        10.7520    0.6470   19.9300 C.ar      1 BAB        -0.0732
     16 C3'        11.2540    0.3690   21.2070 C.ar      1 BAB        -0.0653
     17 C4'        10.4270   -0.2820   22.0920 C.ar      1 BAB         0.0217
     18 C5'         9.1580   -0.6550   21.7560 C.ar      1 BAB         0.0787
     19 C6'         8.6230   -0.4050   20.5190 C.ar      1 BAB        -0.0368
     20 C7'         8.8840    0.5520   18.2400 C.cat     1 BAB         0.2293
     21 C8'         9.4890   -1.3390   23.9830 C.2       1 BAB         0.1412
     22 N1'         8.4020   -0.5450   17.3800 N.pl3     1 BAB        -0.2731
     23 N2'         8.8580    1.9460   17.7280 N.pl3     1 BAB        -0.2731
     24 N3'        10.7200   -0.6800   23.4880 N.2       1 BAB        -0.3147
     25 N4'         8.5050   -1.3250   22.8870 N.pl3     1 BAB        -0.2443
     26 H1         11.5236    3.5195   29.5229 H         1 BAB         0.0529
     27 H2         10.0901    3.1222   27.4977 H         1 BAB         0.0542
     28 H3         12.3215   -0.7322   29.7756 H         1 BAB         0.0536
     29 H4          8.1895   -2.0385   25.5514 H         1 BAB         0.0794
     30 H5          9.7644   -2.8959   25.4453 H         1 BAB         0.0794
     31 H6         12.8539    2.0105   33.1677 H         1 BAB         0.3180
     32 H7         11.2352    1.8623   32.4324 H         1 BAB         0.3180
     33 H8         14.8161    1.4720   29.9367 H         1 BAB         0.3180
     34 H9         14.9814    1.7691   31.6880 H         1 BAB         0.3180
     35 H10         9.1005    1.0710   25.7393 H         1 BAB         0.2324
     36 H11        11.3707    1.1592   19.2020 H         1 BAB         0.0516
     37 H12        12.2604    0.6571   21.4885 H         1 BAB         0.0536
     38 H13         7.6124   -0.7092   20.2716 H         1 BAB         0.0541
     39 H14         8.0258   -0.3381   16.4437 H         1 BAB         0.3180
     40 H15         8.4416   -1.5180   17.7157 H         1 BAB         0.3180
     41 H16         9.1925    2.7188   18.3211 H         1 BAB         0.3180
     42 H17         8.5055    2.1399   16.7798 H         1 BAB         0.3180
     43 H18         7.5494   -1.7088   22.9097 H         1 BAB         0.2324
@<TRIPOS>BOND
     1    1    2 ar 
     2    6    1 ar 
     3    1    7 1  
     4    3    2 ar 
     5    4    3 ar 
     6    5    4 ar 
     7   12    4 1  
     8    5    6 ar 
     9   13    5 1  
    10    7   10 ar 
    11    7   11 ar 
    12    9    8 1  
    13    8   12 1  
    14    8   13 2  
    15   21    9 1  
    16   15   14 ar 
    17   19   14 ar 
    18   14   20 1  
    19   16   15 ar 
    20   17   16 ar 
    21   17   18 ar 
    22   24   17 1  
    23   18   19 ar 
    24   18   25 1  
    25   20   22 ar 
    26   20   23 ar 
    27   21   24 2  
    28   21   25 1  
    29    2   26 1  
    30    3   27 1  
    31    6   28 1  
    32    9   29 1  
    33    9   30 1  
    34   10   31 1  
    35   10   32 1  
    36   11   33 1  
    37   11   34 1  
    38   12   35 1  
    39   15   36 1  
    40   16   37 1  
    41   19   38 1  
    42   22   39 1  
    43   22   40 1  
    44   23   41 1  
    45   23   42 1  
    46   25   43 1  
@<TRIPOS>SUBSTRUCTURE
     1 BAB         1

