#	Name:			1g9d_ligand
#	Creating user name:	wangrx
#	Creation time:		Tue Sep 11 10:43:02 2018

#	Modifying user name:	wangrx
#	Modification time:	Tue Sep 11 10:43:33 2018

@<TRIPOS>MOLECULE
1g9d_ligand
   43    46     1     0     0
SMALL
GAST_HUCK


@<TRIPOS>ATOM
      1 C1         10.7300   -9.4620   23.6580 C.ar      1 NON         0.0090 
      2 C2          9.8430   -8.8330   24.5780 C.ar      1 NON        -0.0713 
      3 C3          8.7250   -8.1070   24.1030 C.ar      1 NON        -0.0420 
      4 C4          8.5430   -8.0410   22.7360 C.ar      1 NON         0.0787 
      5 C5          9.3990   -8.6510   21.8570 C.ar      1 NON         0.0217 
      6 C6         10.4960   -9.3630   22.2770 C.ar      1 NON        -0.0601 
      7 C7         11.9330  -10.2410   24.1410 C.cat     1 NON         0.2286 
      8 C8          7.7300   -7.6130   20.5580 C.2       1 NON         0.1412 
      9 C9          6.8770   -7.1460   19.4090 C.3       1 NON         0.1108 
     10 N1         11.7500  -11.5360   24.8800 N.pl3     1 NON        -0.2733 
     11 N2         13.3110   -9.7160   23.8620 N.pl3     1 NON        -0.2733 
     12 N3          7.4620   -7.3610   21.9900 N.pl3     1 NON        -0.2443 
     13 N4          8.9520   -8.4250   20.4650 N.2       1 NON        -0.3147 
     14 C1'         1.6580  -10.3520   20.7200 C.ar      1 NON         0.0111 
     15 C2'         1.0620   -9.2840   20.0330 C.ar      1 NON        -0.0732 
     16 C3'         1.8470   -8.2510   19.5110 C.ar      1 NON        -0.0653 
     17 C4'         3.1990   -8.2940   19.6790 C.ar      1 NON         0.0217 
     18 C5'         3.8070   -9.3240   20.3450 C.ar      1 NON         0.0787 
     19 C6'         3.0750  -10.3840   20.8910 C.ar      1 NON        -0.0368 
     20 C7'         0.7540  -11.4460   21.2600 C.cat     1 NON         0.2293 
     21 C8'         5.5190   -7.8070   19.6370 C.2       1 NON         0.1412 
     22 N1'         0.9390  -12.8650   20.7990 N.pl3     1 NON        -0.2731 
     23 N2'        -0.3590  -11.0920   22.2190 N.pl3     1 NON        -0.2731 
     24 N3'         4.2040   -7.2950   19.1980 N.2       1 NON        -0.3147 
     25 N4'         5.2760   -9.0980   20.3670 N.pl3     1 NON        -0.2443 
     26 H19        10.0247   -8.9106   25.6439 H         1 NON         0.0529 
     27 H20         8.0378   -7.6213   24.7863 H         1 NON         0.0542 
     28 H21        11.1616   -9.8347   21.5632 H         1 NON         0.0536 
     29 H22         7.3086   -7.4683   18.4499 H         1 NON         0.0794 
     30 H23         6.7809   -6.0503   19.4181 H         1 NON         0.0794 
     31 H24        12.5723  -12.0630   25.2070 H         1 NON         0.3180 
     32 H25        10.8022  -11.8969   25.0597 H         1 NON         0.3180 
     33 H26        13.4307   -8.8275   23.3549 H         1 NON         0.3180 
     34 H27        14.1370  -10.2442   24.1776 H         1 NON         0.3180 
     35 H28         6.6803   -6.8209   22.3878 H         1 NON         0.2324 
     36 H29        -0.0142   -9.2592   19.9059 H         1 NON         0.0516 
     37 H30         1.3860   -7.4264   18.9794 H         1 NON         0.0536 
     38 H31         3.5626  -11.1943   21.4208 H         1 NON         0.0541 
     39 H32         0.3271  -13.6089   21.1638 H         1 NON         0.3180 
     40 H33         1.6776  -13.0932   20.1184 H         1 NON         0.3180 
     41 H34        -0.4799  -10.1177   22.5306 H         1 NON         0.3180 
     42 H35        -0.9967  -11.8250   22.5610 H         1 NON         0.3180 
     43 H36         5.9871   -9.7062   20.7976 H         1 NON         0.2324 
@<TRIPOS>BOND
     1    1    2 ar   
     2    6    1 ar   
     3    1    7 1    
     4    3    2 ar   
     5    4    3 ar   
     6    5    4 ar   
     7   12    4 1    
     8    5    6 ar   
     9   13    5 1    
    10    7   10 ar   
    11    7   11 ar   
    12    9    8 1    
    13    8   12 1    
    14    8   13 2    
    15   21    9 1    
    16   15   14 ar   
    17   19   14 ar   
    18   14   20 1    
    19   16   15 ar   
    20   17   16 ar   
    21   17   18 ar   
    22   24   17 1    
    23   18   19 ar   
    24   18   25 1    
    25   20   22 ar   
    26   20   23 ar   
    27   21   24 2    
    28   21   25 1    
    29    2   26 1    
    30    3   27 1    
    31    6   28 1    
    32    9   29 1    
    33    9   30 1    
    34   10   31 1    
    35   10   32 1    
    36   11   33 1    
    37   11   34 1    
    38   12   35 1    
    39   15   36 1    
    40   16   37 1    
    41   19   38 1    
    42   22   39 1    
    43   22   40 1    
    44   23   41 1    
    45   23   42 1    
    46   25   43 1    
@<TRIPOS>SUBSTRUCTURE
     1 NON         1 PERM              0 ****  ****    0 ROOT 
