### 
### Created by X-TOOL on Mon Sep 10 21:12:48 2018
### 

@<TRIPOS>MOLECULE
1ga8_ligand
   44    45     1     0     0
SMALL
GAST_HUCK


@<TRIPOS>ATOM
      1 C1         22.0250   53.8210   65.7730 C.3       1 DEL         0.1882
      2 C2         22.2850   52.4600   65.2110 C.3       1 DEL         0.1317
      3 C3         22.3020   51.4870   66.3830 C.3       1 DEL         0.0882
      4 C4         23.4690   51.8960   67.3350 C.3       1 DEL         0.0044
      5 C5         23.3490   53.1940   67.9100 C.3       1 DEL         0.0872
      6 C6         24.3150   53.6290   68.7050 C.3       1 DEL         0.0706
      7 O1         21.7810   55.0960   65.1450 O.3       1 DEL        -0.3401
      8 O2         21.2400   52.1370   64.3110 O.3       1 DEL        -0.3842
      9 O3         22.5470   50.2100   65.8510 O.3       1 DEL        -0.3890
     10 O5         23.0970   54.1580   66.7490 O.3       1 DEL        -0.3431
     11 O6         24.6960   52.8350   69.8700 O.3       1 DEL        -0.3925
     12 C1'        21.0220   59.1670   65.1150 C.3       1 DEL         0.1854
     13 C2'        22.2330   58.7350   66.0030 C.3       1 DEL         0.1339
     14 C3'        22.7010   57.3390   65.5460 C.3       1 DEL         0.1144
     15 C4'        21.5020   56.4040   65.7220 C.3       1 DEL         0.1184
     16 C5'        20.2600   56.8190   64.8730 C.3       1 DEL         0.1134
     17 C6'        19.0260   55.9150   65.0600 C.3       1 DEL         0.0730
     18 O1'        20.5870   60.4390   65.5360 O.3       1 DEL        -0.3649
     19 O2'        23.2910   59.6660   65.8500 O.3       1 DEL        -0.3841
     20 O3'        23.8170   56.9390   66.3790 O.3       1 DEL        -0.3864
     21 O5'        19.9380   58.1860   65.2550 O.3       1 DEL        -0.3407
     22 O6'        18.1150   56.1080   63.9880 O.3       1 DEL        -0.3924
     23 H1         21.0998   53.6501   66.3428 H         1 DEL         0.0937
     24 H2         23.2511   52.4371   64.6855 H         1 DEL         0.0670
     25 H3         21.3436   51.5042   66.9226 H         1 DEL         0.0621
     26 H4         24.4062   51.8626   66.7602 H         1 DEL         0.0317
     27 H5         23.5147   51.1628   68.1537 H         1 DEL         0.0317
     28 H6         22.4435   53.1745   68.5342 H         1 DEL         0.0621
     29 H7         24.0034   54.6159   69.0778 H         1 DEL         0.0583
     30 H8         25.2161   53.7394   68.0838 H         1 DEL         0.0583
     31 H9         20.4067   52.1856   64.7645 H         1 DEL         0.2101
     32 H10        21.8336   49.9669   65.2727 H         1 DEL         0.2099
     33 H11        25.3967   53.2754   70.3366 H         1 DEL         0.2095
     34 H12        21.3345   59.2161   64.0615 H         1 DEL         0.0935
     35 H13        21.9258   58.6973   67.0585 H         1 DEL         0.0671
     36 H14        23.0135   57.3581   64.4915 H         1 DEL         0.0648
     37 H15        21.2500   56.3353   66.7905 H         1 DEL         0.0651
     38 H16        20.5391   56.7922   63.8094 H         1 DEL         0.0647
     39 H17        18.5303   56.1672   66.0090 H         1 DEL         0.0584
     40 H18        19.3454   54.8626   65.0814 H         1 DEL         0.0584
     41 H19        21.2970   61.0630   65.4402 H         1 DEL         0.2126
     42 H20        24.0312   59.3922   66.3788 H         1 DEL         0.2101
     43 H21        24.5415   57.5388   66.2453 H         1 DEL         0.2100
     44 H22        17.3584   55.5471   64.1120 H         1 DEL         0.2095
@<TRIPOS>BOND
     1    1    2 1  
     2    7    1 1  
     3    1   10 1  
     4    2    3 1  
     5    2    8 1  
     6    3    4 1  
     7    3    9 1  
     8    5    4 1  
     9    5    6 1  
    10   10    5 1  
    11    6   11 1  
    12   15    7 1  
    13   13   12 1  
    14   12   18 1  
    15   12   21 1  
    16   14   13 1  
    17   13   19 1  
    18   14   15 1  
    19   14   20 1  
    20   15   16 1  
    21   16   17 1  
    22   16   21 1  
    23   17   22 1  
    24    1   23 1  
    25    2   24 1  
    26    3   25 1  
    27    4   26 1  
    28    4   27 1  
    29    5   28 1  
    30    6   29 1  
    31    6   30 1  
    32    8   31 1  
    33    9   32 1  
    34   11   33 1  
    35   12   34 1  
    36   13   35 1  
    37   14   36 1  
    38   15   37 1  
    39   16   38 1  
    40   17   39 1  
    41   17   40 1  
    42   18   41 1  
    43   19   42 1  
    44   20   43 1  
    45   22   44 1  
@<TRIPOS>SUBSTRUCTURE
     1 DEL         1

