### 
### Created by X-TOOL on Mon Sep 10 21:12:45 2018
### 

@<TRIPOS>MOLECULE
1gah_ligand
   88    91     1     0     0
SMALL
GAST_HUCK


@<TRIPOS>ATOM
      1 C1A        33.0630   20.4520    8.1670 C.3       1 ACR         0.0141
      2 C2A        34.2960   20.3430    9.0830 C.3       1 ACR         0.1303
      3 C3A        33.9480   19.5450   10.3510 C.3       1 ACR         0.1215
      4 C4A        32.8780   20.2740   11.1810 C.3       1 ACR         0.1112
      5 C5A        31.7390   20.7860   10.3120 C.2       1 ACR        -0.0200
      6 C6A        30.5680   21.4600   10.9940 C.3       1 ACR         0.0719
      7 C7A        31.8250   20.8160    8.9520 C.2       1 ACR        -0.0543
      8 O2A        35.3420   19.7650    8.3320 O.3       1 ACR        -0.3821
      9 O3A        35.0740   19.3410   11.1710 O.3       1 ACR        -0.3843
     10 O4A        32.4660   19.3390   12.1790 O.3       1 ACR        -0.3780
     11 O6A        30.9890   22.7330   11.4850 O.3       1 ACR        -0.3839
     12 C1B        31.7070   18.1400    3.5020 C.3       1 ACR         0.1886
     13 C2B        33.1840   18.4940    3.7690 C.3       1 ACR         0.1370
     14 C3B        33.5050   18.3060    5.2630 C.3       1 ACR         0.1304
     15 C4B        32.5750   19.2330    6.0590 C.3       1 ACR         0.0341
     16 C5B        31.1300   18.8000    5.7710 C.3       1 ACR         0.1038
     17 C6B        30.1060   19.6670    6.4660 C.3       1 ACR        -0.0332
     18 N4B        32.8420   19.1530    7.5040 N.4       1 ACR         0.2433
     19 O2B        34.0300   17.6490    2.9980 O.3       1 ACR        -0.3840
     20 O3B        34.8840   18.5960    5.5130 O.3       1 ACR        -0.3834
     21 O5B        30.8370   18.8700    4.3560 O.3       1 ACR        -0.3401
     22 C1C        30.6290   13.4840    1.4320 C.3       1 ACR         0.1884
     23 C2C        30.3230   14.8020    0.7490 C.3       1 ACR         0.1341
     24 C3C        30.9830   15.9610    1.5120 C.3       1 ACR         0.1144
     25 C4C        30.6730   15.9180    3.0250 C.3       1 ACR         0.1184
     26 C5C        30.8440   14.5010    3.5800 C.3       1 ACR         0.1134
     27 C6C        30.3570   14.3390    5.0070 C.3       1 ACR         0.0730
     28 O2C        30.8330   14.7670   -0.5780 O.3       1 ACR        -0.3841
     29 O3C        30.5150   17.1840    0.9660 O.3       1 ACR        -0.3864
     30 O4C        31.6000   16.7590    3.7470 O.3       1 ACR        -0.3401
     31 O5C        30.1470   13.5390    2.7610 O.3       1 ACR        -0.3405
     32 O6C        30.8940   13.1660    5.5960 O.3       1 ACR        -0.3924
     33 C1D        34.8330   10.3670    0.5220 C.3       1 ACR         0.1854
     34 C2D        34.1130   10.9720   -0.6850 C.3       1 ACR         0.1339
     35 C3D        33.4490   12.2790   -0.2610 C.3       1 ACR         0.1144
     36 C4D        32.5170   12.0350    0.9230 C.3       1 ACR         0.1184
     37 C5D        33.2740   11.3490    2.0590 C.3       1 ACR         0.1134
     38 C6D        32.3350   10.9590    3.1810 C.3       1 ACR         0.0730
     39 O1D        35.7960   11.2580    0.9730 O.3       1 ACR        -0.3649
     40 O2D        35.0540   11.2290   -1.7170 O.3       1 ACR        -0.3841
     41 O3D        32.7190   12.8350   -1.3460 O.3       1 ACR        -0.3864
     42 O4D        32.0180   13.2990    1.3960 O.3       1 ACR        -0.3401
     43 O5D        33.9000   10.1340    1.5890 O.3       1 ACR        -0.3407
     44 O6D        31.3970    9.9880    2.7370 O.3       1 ACR        -0.3924
     45 H1         33.2474   21.2261    7.4075 H         1 ACR         0.0950
     46 H2         34.6051   21.3527    9.3911 H         1 ACR         0.0694
     47 H3         33.5542   18.5654   10.0424 H         1 ACR         0.0671
     48 H4         33.3346   21.1434   11.6766 H         1 ACR         0.0769
     49 H5         30.2204   20.8377   11.8318 H         1 ACR         0.0706
     50 H6         29.7484   21.5951   10.2729 H         1 ACR         0.0706
     51 H7         30.9417   21.1231    8.3939 H         1 ACR         0.0299
     52 H8         36.1259   19.7184    8.8666 H         1 ACR         0.2103
     53 H9         35.7479   18.8909   10.6754 H         1 ACR         0.2102
     54 H10        31.8337   19.7513   12.7558 H         1 ACR         0.2130
     55 H11        31.6976   22.6130   12.1063 H         1 ACR         0.2125
     56 H12        31.4500   18.3605    2.4554 H         1 ACR         0.0938
     57 H13        33.3617   19.5423    3.4873 H         1 ACR         0.0672
     58 H14        33.3076   17.2630    5.5515 H         1 ACR         0.0679
     59 H15        32.7237   20.2709    5.7264 H         1 ACR         0.0903
     60 H16        31.0109   17.7621    6.1154 H         1 ACR         0.0652
     61 H17        29.0953   19.3081    6.2217 H         1 ACR         0.0257
     62 H18        30.2170   20.7080    6.1283 H         1 ACR         0.0257
     63 H19        30.2601   19.6160    7.5539 H         1 ACR         0.0257
     64 H20        32.0525   18.7070    7.9441 H         1 ACR         0.2029
     65 H21        33.6657   18.5880    7.6395 H         1 ACR         0.2029
     66 H22        34.9376   17.8779    3.1607 H         1 ACR         0.2101
     67 H23        35.0678   18.4817    6.4380 H         1 ACR         0.2102
     68 H24        30.1343   12.6585    0.8994 H         1 ACR         0.0938
     69 H25        29.2341   14.9556    0.7222 H         1 ACR         0.0671
     70 H26        32.0728   15.8970    1.3770 H         1 ACR         0.0648
     71 H27        29.6421   16.2631    3.1924 H         1 ACR         0.0651
     72 H28        31.9185   14.2664    3.5588 H         1 ACR         0.0647
     73 H29        29.2591   14.2716    5.0072 H         1 ACR         0.0584
     74 H30        30.6708   15.2135    5.5959 H         1 ACR         0.0584
     75 H31        31.7738   14.6376   -0.5512 H         1 ACR         0.2101
     76 H32        30.7067   17.2082    0.0359 H         1 ACR         0.2100
     77 H33        31.8424   13.2213    5.6012 H         1 ACR         0.2095
     78 H34        35.3075    9.4185    0.2300 H         1 ACR         0.0935
     79 H35        33.3487   10.2703   -1.0504 H         1 ACR         0.0671
     80 H36        34.2305   12.9910    0.0428 H         1 ACR         0.0648
     81 H37        31.6777   11.3996    0.6041 H         1 ACR         0.0651
     82 H38        34.0415   12.0373    2.4427 H         1 ACR         0.0647
     83 H39        31.7938   11.8524    3.5258 H         1 ACR         0.0584
     84 H40        32.9206   10.5411    4.0131 H         1 ACR         0.0584
     85 H41        36.2443   10.8852    1.7231 H         1 ACR         0.2126
     86 H42        35.7159   11.8311   -1.3977 H         1 ACR         0.2101
     87 H43        32.3321   13.6597   -1.0764 H         1 ACR         0.2100
     88 H44        31.8607    9.2135    2.4410 H         1 ACR         0.2095
@<TRIPOS>BOND
     1    1    2 1  
     2    1    7 1  
     3   18    1 1  
     4    2    3 1  
     5    2    8 1  
     6    3    4 1  
     7    3    9 1  
     8    5    4 1  
     9    4   10 1  
    10    5    6 1  
    11    7    5 2  
    12    6   11 1  
    13   12   13 1  
    14   12   21 1  
    15   30   12 1  
    16   13   14 1  
    17   13   19 1  
    18   14   15 1  
    19   14   20 1  
    20   16   15 1  
    21   15   18 1  
    22   16   17 1  
    23   21   16 1  
    24   22   23 1  
    25   22   31 1  
    26   42   22 1  
    27   23   24 1  
    28   23   28 1  
    29   24   25 1  
    30   24   29 1  
    31   26   25 1  
    32   25   30 1  
    33   26   27 1  
    34   31   26 1  
    35   27   32 1  
    36   34   33 1  
    37   33   39 1  
    38   33   43 1  
    39   35   34 1  
    40   34   40 1  
    41   36   35 1  
    42   35   41 1  
    43   36   37 1  
    44   36   42 1  
    45   37   38 1  
    46   37   43 1  
    47   38   44 1  
    48    1   45 1  
    49    2   46 1  
    50    3   47 1  
    51    4   48 1  
    52    6   49 1  
    53    6   50 1  
    54    7   51 1  
    55    8   52 1  
    56    9   53 1  
    57   10   54 1  
    58   11   55 1  
    59   12   56 1  
    60   13   57 1  
    61   14   58 1  
    62   15   59 1  
    63   16   60 1  
    64   17   61 1  
    65   17   62 1  
    66   17   63 1  
    67   18   64 1  
    68   18   65 1  
    69   19   66 1  
    70   20   67 1  
    71   22   68 1  
    72   23   69 1  
    73   24   70 1  
    74   25   71 1  
    75   26   72 1  
    76   27   73 1  
    77   27   74 1  
    78   28   75 1  
    79   29   76 1  
    80   32   77 1  
    81   33   78 1  
    82   34   79 1  
    83   35   80 1  
    84   36   81 1  
    85   37   82 1  
    86   38   83 1  
    87   38   84 1  
    88   39   85 1  
    89   40   86 1  
    90   41   87 1  
    91   44   88 1  
@<TRIPOS>SUBSTRUCTURE
     1 ACR         1

