### 
### Created by X-TOOL on Mon Sep 10 21:12:45 2018
### 

@<TRIPOS>MOLECULE
1gai_ligand
   90    93     1     0     0
SMALL
GAST_HUCK


@<TRIPOS>ATOM
      1 C1A        33.1700   20.6220    8.1810 C.3       1 GAC         0.0073
      2 C2A        34.3700   20.4820    9.1210 C.3       1 GAC         0.1257
      3 C3A        33.9980   19.6160   10.3230 C.3       1 GAC         0.1124
      4 C4A        32.9010   20.2890   11.1430 C.3       1 GAC         0.0888
      5 C5A        31.6300   20.5140   10.3000 C.3       1 GAC         0.0159
      6 C6A        30.6120   21.3490   11.0820 C.3       1 GAC         0.0496
      7 C7A        31.9480   21.1840    8.9340 C.3       1 GAC         0.0001
      8 O2A        35.4530   19.8790    8.4310 O.3       1 GAC        -0.3835
      9 O3A        35.1440   19.4270   11.1420 O.3       1 GAC        -0.3864
     10 O4A        32.5940   19.4740   12.2730 O.3       1 GAC        -0.3888
     11 O6A        31.1270   22.6420   11.4010 O.3       1 GAC        -0.3946
     12 C1B        31.7060   18.2700    3.5220 C.3       1 GAC         0.1886
     13 C2B        33.1790   18.6150    3.7860 C.3       1 GAC         0.1370
     14 C3B        33.4940   18.4450    5.2860 C.3       1 GAC         0.1304
     15 C4B        32.5730   19.3810    6.0870 C.3       1 GAC         0.0334
     16 C5B        31.1270   18.9380    5.7900 C.3       1 GAC         0.1038
     17 C6B        30.0660   19.7720    6.4830 C.3       1 GAC        -0.0332
     18 N4B        32.8760   19.3180    7.5360 N.4       1 GAC         0.2370
     19 O2B        34.0020   17.7370    3.0250 O.3       1 GAC        -0.3840
     20 O3B        34.8640   18.7400    5.5420 O.3       1 GAC        -0.3834
     21 O5B        30.8630   19.0490    4.3710 O.3       1 GAC        -0.3401
     22 C1C        30.7030   13.6000    1.4850 C.3       1 GAC         0.1884
     23 C2C        30.3340   14.9210    0.8370 C.3       1 GAC         0.1341
     24 C3C        30.9970   16.0810    1.5810 C.3       1 GAC         0.1144
     25 C4C        30.7060   16.0130    3.0940 C.3       1 GAC         0.1184
     26 C5C        30.9680   14.6110    3.6400 C.3       1 GAC         0.1134
     27 C6C        30.5130   14.4420    5.0790 C.3       1 GAC         0.0730
     28 O2C        30.7780   14.9220   -0.5120 O.3       1 GAC        -0.3841
     29 O3C        30.4880   17.2900    1.0410 O.3       1 GAC        -0.3864
     30 O4C        31.5750   16.9070    3.8240 O.3       1 GAC        -0.3401
     31 O5C        30.2990   13.6120    2.8470 O.3       1 GAC        -0.3405
     32 O6C        30.9640   13.2120    5.6190 O.3       1 GAC        -0.3924
     33 C1D        34.8350   10.4330    0.5560 C.3       1 GAC         0.1854
     34 C2D        34.1310   11.0140   -0.6720 C.3       1 GAC         0.1339
     35 C3D        33.4850   12.3410   -0.2900 C.3       1 GAC         0.1144
     36 C4D        32.5580   12.1440    0.9120 C.3       1 GAC         0.1184
     37 C5D        33.3030   11.4710    2.0630 C.3       1 GAC         0.1134
     38 C6D        32.3800   11.1360    3.2170 C.3       1 GAC         0.0730
     39 O1D        35.7920   11.3290    1.0000 O.3       1 GAC        -0.3649
     40 O2D        35.0700   11.2220   -1.7230 O.3       1 GAC        -0.3841
     41 O3D        32.7480   12.8540   -1.3930 O.3       1 GAC        -0.3864
     42 O4D        32.0860   13.4280    1.3530 O.3       1 GAC        -0.3401
     43 O5D        33.8920   10.2340    1.6170 O.3       1 GAC        -0.3407
     44 O6D        31.3310   10.2700    2.8020 O.3       1 GAC        -0.3924
     45 H1         33.4355   21.3387    7.3899 H         1 GAC         0.0877
     46 H2         34.6719   21.4799    9.4718 H         1 GAC         0.0677
     47 H3         33.6374   18.6395    9.9674 H         1 GAC         0.0647
     48 H4         33.2685   21.2650   11.4929 H         1 GAC         0.0623
     49 H5         31.1821   19.5302   10.0963 H         1 GAC         0.0351
     50 H6         30.3617   20.8241   12.0157 H         1 GAC         0.0561
     51 H7         29.7037   21.4669   10.4728 H         1 GAC         0.0561
     52 H8         31.0674   21.0640    8.2859 H         1 GAC         0.0325
     53 H9         32.1262   22.2541    9.1161 H         1 GAC         0.0325
     54 H10        36.1982   19.8061    9.0156 H         1 GAC         0.2102
     55 H11        35.8290   19.0081   10.6344 H         1 GAC         0.2100
     56 H12        31.9364   19.9067   12.8049 H         1 GAC         0.2099
     57 H13        31.9094   22.5479   11.9316 H         1 GAC         0.2094
     58 H14        31.4472   18.4582    2.4696 H         1 GAC         0.0938
     59 H15        33.3731   19.6555    3.4866 H         1 GAC         0.0672
     60 H16        33.2954   17.4043    5.5819 H         1 GAC         0.0679
     61 H17        32.7154   20.4168    5.7452 H         1 GAC         0.0903
     62 H18        31.0181   17.8904    6.1072 H         1 GAC         0.0652
     63 H19        29.0689   19.3903    6.2183 H         1 GAC         0.0257
     64 H20        30.1549   20.8199    6.1607 H         1 GAC         0.0257
     65 H21        30.2048   19.7104    7.5725 H         1 GAC         0.0257
     66 H22        32.0802   18.9122    8.0029 H         1 GAC         0.2022
     67 H23        33.6788   18.7213    7.6603 H         1 GAC         0.2022
     68 H24        34.9154   17.9449    3.1826 H         1 GAC         0.2101
     69 H25        35.0434   18.6272    6.4680 H         1 GAC         0.2102
     70 H26        30.1863   12.7778    0.9684 H         1 GAC         0.0938
     71 H27        29.2416   15.0470    0.8650 H         1 GAC         0.0671
     72 H28        32.0852   16.0382    1.4259 H         1 GAC         0.0648
     73 H29        29.6557   16.2896    3.2679 H         1 GAC         0.0651
     74 H30        32.0522   14.4308    3.5951 H         1 GAC         0.0647
     75 H31        29.4138   14.4669    5.1128 H         1 GAC         0.0584
     76 H32        30.9173   15.2682    5.6823 H         1 GAC         0.0584
     77 H33        31.7222   14.8189   -0.5335 H         1 GAC         0.2101
     78 H34        29.5491   17.3273    1.1806 H         1 GAC         0.2100
     79 H35        31.9134   13.1865    5.5962 H         1 GAC         0.2095
     80 H36        35.3082    9.4758    0.2918 H         1 GAC         0.0935
     81 H37        33.3548   10.3133   -1.0133 H         1 GAC         0.0671
     82 H38        34.2733   13.0592   -0.0204 H         1 GAC         0.0648
     83 H39        31.7043   11.5174    0.6145 H         1 GAC         0.0651
     84 H40        34.0931   12.1502    2.4159 H         1 GAC         0.0647
     85 H41        31.9432   12.0664    3.6089 H         1 GAC         0.0584
     86 H42        32.9611   10.6415    4.0093 H         1 GAC         0.0584
     87 H43        36.2275   10.9721    1.7651 H         1 GAC         0.2126
     88 H44        35.7415   11.8273   -1.4310 H         1 GAC         0.2101
     89 H45        32.3628   13.6890   -1.1542 H         1 GAC         0.2100
     90 H46        30.8231   10.6938    2.1202 H         1 GAC         0.2095
@<TRIPOS>BOND
     1    1    2 1  
     2    1    7 1  
     3   18    1 1  
     4    2    3 1  
     5    2    8 1  
     6    3    4 1  
     7    3    9 1  
     8    5    4 1  
     9    4   10 1  
    10    5    6 1  
    11    7    5 1  
    12    6   11 1  
    13   12   13 1  
    14   12   21 1  
    15   30   12 1  
    16   13   14 1  
    17   13   19 1  
    18   14   15 1  
    19   14   20 1  
    20   16   15 1  
    21   15   18 1  
    22   16   17 1  
    23   21   16 1  
    24   22   23 1  
    25   22   31 1  
    26   42   22 1  
    27   23   24 1  
    28   23   28 1  
    29   24   25 1  
    30   24   29 1  
    31   26   25 1  
    32   25   30 1  
    33   26   27 1  
    34   31   26 1  
    35   27   32 1  
    36   34   33 1  
    37   33   39 1  
    38   33   43 1  
    39   35   34 1  
    40   34   40 1  
    41   36   35 1  
    42   35   41 1  
    43   36   37 1  
    44   36   42 1  
    45   37   38 1  
    46   37   43 1  
    47   38   44 1  
    48    1   45 1  
    49    2   46 1  
    50    3   47 1  
    51    4   48 1  
    52    5   49 1  
    53    6   50 1  
    54    6   51 1  
    55    7   52 1  
    56    7   53 1  
    57    8   54 1  
    58    9   55 1  
    59   10   56 1  
    60   11   57 1  
    61   12   58 1  
    62   13   59 1  
    63   14   60 1  
    64   15   61 1  
    65   16   62 1  
    66   17   63 1  
    67   17   64 1  
    68   17   65 1  
    69   18   66 1  
    70   18   67 1  
    71   19   68 1  
    72   20   69 1  
    73   22   70 1  
    74   23   71 1  
    75   24   72 1  
    76   25   73 1  
    77   26   74 1  
    78   27   75 1  
    79   27   76 1  
    80   28   77 1  
    81   29   78 1  
    82   32   79 1  
    83   33   80 1  
    84   34   81 1  
    85   35   82 1  
    86   36   83 1  
    87   37   84 1  
    88   38   85 1  
    89   38   86 1  
    90   39   87 1  
    91   40   88 1  
    92   41   89 1  
    93   44   90 1  
@<TRIPOS>SUBSTRUCTURE
     1 GAC         1

