### 
### Created by X-TOOL on Mon Sep 10 21:12:45 2018
### 

@<TRIPOS>MOLECULE
1gbt_ligand
   22    22     1     0     0
SMALL
GAST_HUCK


@<TRIPOS>ATOM
      1 CD         44.7730    0.3020   29.0190 C.2       1 GBS         0.1806
      2 OD         45.4450    0.0820   30.1080 O.2       1 GBS        -0.3238
      3 C1         44.4010   -0.9100   28.1860 C.ar      1 GBS         0.1019
      4 C21        44.0110   -0.7260   26.8470 C.ar      1 GBS         0.0276
      5 C22        44.4640   -2.2210   28.6830 C.ar      1 GBS         0.0276
      6 C31        43.7310   -1.8150   26.0040 C.ar      1 GBS         0.0579
      7 C32        44.1590   -3.2850   27.8510 C.ar      1 GBS         0.0579
      8 C4         43.6920   -3.0930   26.5570 C.ar      1 GBS         0.1729
      9 NE         43.3380   -4.2160   25.8170 N.pl3     1 GBS        -0.2316
     10 CZ         43.7510   -4.4610   24.5790 C.cat     1 GBS         0.1712
     11 NH1        44.5300   -3.6370   23.8900 N.pl3     1 GBS        -0.3476
     12 NH2        43.3590   -5.5750   23.9830 N.pl3     1 GBS        -0.3476
     13 H1         44.4897    1.3094   28.7177 H         1 GBS         0.1481
     14 H2         43.9243    0.2811   26.4556 H         1 GBS         0.0913
     15 H3         44.7500   -2.3998   29.7132 H         1 GBS         0.0913
     16 H4         43.5493   -1.6638   24.9461 H         1 GBS         0.1001
     17 H5         44.2883   -4.2961   28.2198 H         1 GBS         0.1001
     18 H6         42.7128   -4.9047   26.2594 H         1 GBS         0.2516
     19 H7         44.8183   -3.8814   22.9319 H         1 GBS         0.1676
     20 H8         44.8464   -2.7529   24.3133 H         1 GBS         0.1676
     21 H9         42.7536   -6.2413   24.4835 H         1 GBS         0.1676
     22 H10        43.6592   -5.7761   23.0184 H         1 GBS         0.1676
@<TRIPOS>BOND
     1    1    2 2  
     2    1    3 1  
     3    3    4 ar 
     4    3    5 ar 
     5    4    6 ar 
     6    5    7 ar 
     7    6    8 ar 
     8    7    8 ar 
     9    8    9 1  
    10    9   10 ar 
    11   10   11 ar 
    12   10   12 ar 
    13    1   13 1  
    14    4   14 1  
    15    5   15 1  
    16    6   16 1  
    17    7   17 1  
    18    9   18 1  
    19   11   19 1  
    20   11   20 1  
    21   12   21 1  
    22   12   22 1  
@<TRIPOS>SUBSTRUCTURE
     1 GBS         1

