### 
### Created by X-TOOL on Fri Nov 18 11:53:54 2016
### 

@<TRIPOS>MOLECULE
1gca_ligand
   24    24     1     0     0
SMALL
GAST_HUCK


@<TRIPOS>ATOM
      1 C1         82.5060   28.9040   85.2000 C.3       1 GAL         0.1854
      2 C2         81.6930   27.9420   86.0690 C.3       1 GAL         0.1339
      3 C3         81.9450   28.2770   87.5230 C.3       1 GAL         0.1141
      4 C4         83.4670   28.2860   87.8830 C.3       1 GAL         0.1119
      5 C5         84.2570   29.1710   86.8750 C.3       1 GAL         0.1130
      6 C6         85.7920   29.0160   87.0290 C.3       1 GAL         0.0730
      7 O1         82.3000   28.6130   83.8690 O.3       1 GAL        -0.3649
      8 O2         80.3100   28.0700   85.7670 O.3       1 GAL        -0.3841
      9 O3         81.2830   27.3400   88.2950 O.3       1 GAL        -0.3864
     10 O4         83.9180   26.9610   87.8120 O.3       1 GAL        -0.3865
     11 O5         83.8940   28.7880   85.5160 O.3       1 GAL        -0.3407
     12 O6         86.4570   29.9630   86.2050 O.3       1 GAL        -0.3924
     13 H1         82.1772   29.9348   85.3984 H         1 GAL         0.0935
     14 H2         82.0121   26.9082   85.8707 H         1 GAL         0.0671
     15 H3         81.5340   29.2757   87.7321 H         1 GAL         0.0648
     16 H4         83.6088   28.6774   88.9012 H         1 GAL         0.0647
     17 H5         83.9874   30.2239   87.0443 H         1 GAL         0.0647
     18 H6         86.0882   27.9999   86.7295 H         1 GAL         0.0584
     19 H7         86.0725   29.1852   88.0791 H         1 GAL         0.0584
     20 H8         82.7952   29.2211   83.3327 H         1 GAL         0.2126
     21 H9         79.8111   27.4750   86.3143 H         1 GAL         0.2101
     22 H10        80.3600   27.3411   88.0701 H         1 GAL         0.2100
     23 H11        83.4310   26.4284   88.4298 H         1 GAL         0.2100
     24 H12        86.2156   29.8166   85.2979 H         1 GAL         0.2095
@<TRIPOS>BOND
     1    1    2 1  
     2    1    7 1  
     3    1   11 1  
     4    1   13 1  
     5    2    3 1  
     6    2    8 1  
     7    2   14 1  
     8    3    4 1  
     9    3    9 1  
    10    3   15 1  
    11    4    5 1  
    12    4   10 1  
    13    4   16 1  
    14    5    6 1  
    15    5   11 1  
    16    5   17 1  
    17    6   12 1  
    18    6   18 1  
    19    6   19 1  
    20    7   20 1  
    21    8   21 1  
    22    9   22 1  
    23   10   23 1  
    24   12   24 1  
@<TRIPOS>SUBSTRUCTURE
     1 GAL         1

