### 
### Created by X-TOOL on Fri Sep 26 17:34:18 2014
### 

@<TRIPOS>MOLECULE
1gcz_ligand
   27    28     1     0     0
SMALL
GAST_HUCK


@<TRIPOS>ATOM
      1 C3         64.4220   22.9560   19.2130 C.3       1 YZ9        -0.0373
      2 C11        63.3860   23.3810   18.2120 C.3       1 YZ9         0.0722
      3 O1         61.3510   24.5010   20.7240 O.2       1 YZ9        -0.3690
      4 O2         62.0570   23.4360   18.8690 O.3       1 YZ9        -0.2813
      5 C6         61.0580   29.4880   19.1140 C.ar      1 YZ9        -0.0558
      6 C5         61.1960   26.9880   19.4160 C.2       1 YZ9        -0.0200
      7 C4         60.1960   29.0700   16.3370 C.ar      1 YZ9         0.0115
      8 O3         60.3600   26.7030   16.7360 O.3       1 YZ9        -0.2091
      9 C2         60.9070   28.1890   18.5730 C.ar      1 YZ9         0.0263
     10 C1         60.4860   28.0060   17.2200 C.ar      1 YZ9         0.1395
     11 C7         60.6760   25.6360   17.4340 C.2       1 YZ9         0.2769
     12 C12        61.5290   24.5010   19.5440 C.2       1 YZ9         0.2575
     13 O4         60.1240   31.4520   16.1840 O.3       1 YZ9        -0.3291
     14 O5         60.5840   24.5910   16.9260 O.2       1 YZ9        -0.3759
     15 C10        60.7800   30.5970   18.2630 C.ar      1 YZ9        -0.0319
     16 C9         61.1380   25.7560   18.8230 C.2       1 YZ9         0.1364
     17 C8         60.3670   30.3620   16.9320 C.ar      1 YZ9         0.0910
     18 H1         65.4074   22.9152   18.7259 H         1 YZ9         0.0255
     19 H2         64.1658   21.9611   19.6060 H         1 YZ9         0.0255
     20 H3         64.4516   23.6805   20.0402 H         1 YZ9         0.0255
     21 H4         63.3564   22.6565   17.3848 H         1 YZ9         0.0607
     22 H5         63.6422   24.3760   17.8190 H         1 YZ9         0.0607
     23 H6         61.3743   29.6345   20.1404 H         1 YZ9         0.0636
     24 H7         61.4454   27.0908   20.4711 H         1 YZ9         0.0848
     25 H8         59.8761   28.9235   15.3117 H         1 YZ9         0.0496
     26 H9         60.2771   32.2322   16.7041 H         1 YZ9         0.2517
     27 H10        60.8843   31.6106   18.6330 H         1 YZ9         0.0505
@<TRIPOS>BOND
     1    2    1 1  
     2    2    4 1  
     3    4   12 1  
     4   12    3 2  
     5   12   16 1  
     6   16    6 2  
     7   16   11 1  
     8   11    8 1  
     9   11   14 2  
    10    8   10 1  
    11   10    7 ar 
    12   10    9 ar 
    13    9    6 1  
    14    9    5 ar 
    15    5   15 ar 
    16   15   17 ar 
    17   17    7 ar 
    18   17   13 1  
    19    1   18 1  
    20    1   19 1  
    21    1   20 1  
    22    2   21 1  
    23    2   22 1  
    24    5   23 1  
    25    6   24 1  
    26    7   25 1  
    27   13   26 1  
    28   15   27 1  
@<TRIPOS>SUBSTRUCTURE
     1 YZ9         1

