### 
### Created by X-TOOL on Mon Sep 10 21:12:47 2018
### 

@<TRIPOS>MOLECULE
1gfw_ligand
   50    53     1     0     0
SMALL
GAST_HUCK


@<TRIPOS>ATOM
      1 S1         37.8320   31.9580   27.6090 S.o2      1 MSI         0.0628
      2 N1         34.8990   36.0180   31.0490 N.am      1 MSI        -0.2221
      3 N2         39.5730   32.0690   27.8470 N.am      1 MSI        -0.2301
      4 O1         41.0500   32.5810   25.0020 O.3       1 MSI        -0.3161
      5 O2         33.6150   35.3330   32.8950 O.2       1 MSI        -0.3858
      6 O3         34.1410   32.7110   31.6750 O.3       1 MSI        -0.3604
      7 O4         37.4530   30.6450   28.0400 O.2       1 MSI        -0.1521
      8 O5         37.7590   32.3160   26.2430 O.2       1 MSI        -0.1521
      9 C2         34.4470   35.1090   32.0080 C.2       1 MSI         0.2401
     10 C3         35.1120   33.7590   31.8460 C.3       1 MSI         0.1791
     11 C4         36.5000   32.9310   29.9060 C.ar      1 MSI        -0.0417
     12 C5         36.9700   33.2280   28.5810 C.ar      1 MSI         0.0872
     13 C6         36.7770   34.5390   28.0230 C.ar      1 MSI        -0.0553
     14 C7         36.1200   35.5620   28.7630 C.ar      1 MSI        -0.0445
     15 C8         35.6390   35.2460   30.0630 C.ar      1 MSI         0.0774
     16 C9         35.8110   33.9710   30.6060 C.ar      1 MSI         0.0291
     17 C20        40.2580   33.3410   27.4860 C.3       1 MSI         0.0684
     18 C10        40.9650   33.9310   28.7030 C.3       1 MSI        -0.0290
     19 C11        40.6350   32.9930   29.8420 C.3       1 MSI        -0.0341
     20 C12        40.0610   31.7480   29.1930 C.3       1 MSI         0.0299
     21 C13        41.2910   33.2390   26.2930 C.3       1 MSI         0.0902
     22 C14        39.8930   32.8910   24.2330 C.ar      1 MSI         0.0912
     23 C15        39.5470   34.2470   23.9090 C.ar      1 MSI        -0.0331
     24 C16        38.4070   34.5440   23.1000 C.ar      1 MSI        -0.0706
     25 C17        37.6050   33.4880   22.6070 C.ar      1 MSI        -0.0729
     26 C18        37.9400   32.1280   22.9190 C.ar      1 MSI        -0.0706
     27 C19        39.0770   31.8330   23.7280 C.ar      1 MSI        -0.0331
     28 C1         34.7320   37.4700   31.0830 C.3       1 MSI         0.0440
     29 H1         34.5888   31.8789   31.5763 H         1 MSI         0.2163
     30 H2         35.7886   33.5239   32.6808 H         1 MSI         0.0984
     31 H3         36.6610   31.9584   30.3568 H         1 MSI         0.0540
     32 H4         37.1375   34.7516   27.0231 H         1 MSI         0.0543
     33 H5         35.9900   36.5545   28.3469 H         1 MSI         0.0485
     34 H6         39.4733   34.0457   27.1735 H         1 MSI         0.0541
     35 H7         40.5897   34.9430   28.9149 H         1 MSI         0.0285
     36 H8         42.0517   33.9701   28.5372 H         1 MSI         0.0285
     37 H9         39.8949   33.4512   30.5145 H         1 MSI         0.0281
     38 H10        41.5434   32.7453   30.4107 H         1 MSI         0.0281
     39 H11        40.8438   30.9784   29.1237 H         1 MSI         0.0478
     40 H12        39.2276   31.3695   29.8030 H         1 MSI         0.0478
     41 H13        41.5491   34.2789   26.0441 H         1 MSI         0.0633
     42 H14        42.1719   32.7335   26.7155 H         1 MSI         0.0633
     43 H15        40.1605   35.0581   24.2842 H         1 MSI         0.0542
     44 H16        38.1582   35.5727   22.8654 H         1 MSI         0.0589
     45 H17        36.7380   33.7061   21.9940 H         1 MSI         0.0523
     46 H18        37.3256   31.3204   22.5377 H         1 MSI         0.0589
     47 H19        39.3226   30.8030   23.9602 H         1 MSI         0.0542
     48 H20        34.1191   37.7483   31.9530 H         1 MSI         0.0550
     49 H21        34.2329   37.8034   30.1612 H         1 MSI         0.0550
     50 H22        35.7183   37.9508   31.1605 H         1 MSI         0.0550
@<TRIPOS>BOND
     1    3    1 am 
     2    1    7 2  
     3    1    8 2  
     4    1   12 1  
     5    2    9 am 
     6   15    2 1  
     7    2   28 1  
     8   17    3 1  
     9    3   20 1  
    10   21    4 1  
    11    4   22 1  
    12    9    5 2  
    13   10    6 1  
    14   10    9 1  
    15   16   10 1  
    16   12   11 ar 
    17   11   16 ar 
    18   12   13 ar 
    19   13   14 ar 
    20   14   15 ar 
    21   16   15 ar 
    22   17   18 1  
    23   17   21 1  
    24   18   19 1  
    25   19   20 1  
    26   22   23 ar 
    27   22   27 ar 
    28   23   24 ar 
    29   24   25 ar 
    30   25   26 ar 
    31   26   27 ar 
    32    6   29 1  
    33   10   30 1  
    34   11   31 1  
    35   13   32 1  
    36   14   33 1  
    37   17   34 1  
    38   18   35 1  
    39   18   36 1  
    40   19   37 1  
    41   19   38 1  
    42   20   39 1  
    43   20   40 1  
    44   21   41 1  
    45   21   42 1  
    46   23   43 1  
    47   24   44 1  
    48   25   45 1  
    49   26   46 1  
    50   27   47 1  
    51   28   48 1  
    52   28   49 1  
    53   28   50 1  
@<TRIPOS>SUBSTRUCTURE
     1 MSI         1

