### 
### Created by X-TOOL on Mon Sep 10 21:12:47 2018
### 

@<TRIPOS>MOLECULE
1gfy_ligand
   25    26     1     0     0
SMALL
GAST_HUCK


@<TRIPOS>ATOM
      1 S1         14.1940   45.0590   17.0060 S.3       1 COL        -0.1506
      2 C2         13.9580   45.5700   18.7020 C.3       1 COL         0.0206
      3 C3         12.4990   45.5480   18.9700 C.2       1 COL        -0.0011
      4 C4         11.4490   45.2640   18.1670 C.2       1 COL        -0.0753
      5 C5         11.4060   44.6490   16.8120 C.3       1 COL        -0.0332
      6 C6         12.7610   43.9420   16.7200 C.3       1 COL        -0.0007
      7 S13        11.9960   46.2350   20.4790 S.3       1 COL        -0.0226
      8 C14        10.4010   46.0440   20.0200 C.2       1 COL         0.1338
      9 C15        10.1660   45.5560   18.8180 C.2       1 COL         0.0005
     10 C16         8.7290   45.4290   18.2840 C.2       1 COL         0.0260
     11 O17         7.7380   45.4230   18.9570 O.co2     1 COL        -0.5769
     12 O18         8.6670   45.3550   17.0130 O.co2     1 COL        -0.5769
     13 N19         9.3080   46.5050   20.8510 N.am      1 COL        -0.2107
     14 C20         9.4980   47.2040   21.9760 C.2       1 COL         0.2766
     15 C21         8.1590   47.6450   22.5460 C.2       1 COL         0.1508
     16 O22         7.1580   46.7170   22.4000 O.co2     1 COL        -0.5455
     17 O23         7.9420   48.5860   23.2340 O.co2     1 COL        -0.5455
     18 O24        10.5690   47.2680   22.6010 O.2       1 COL        -0.3509
     19 H1         14.3521   46.5866   18.8473 H         1 COL         0.0484
     20 H2         14.4758   44.8756   19.3800 H         1 COL         0.0484
     21 H3         11.3055   45.4169   16.0309 H         1 COL         0.0356
     22 H4         10.5773   43.9305   16.7286 H         1 COL         0.0356
     23 H5         12.7877   43.1417   17.4742 H         1 COL         0.0392
     24 H6         12.8569   43.5031   15.7159 H         1 COL         0.0392
     25 H7          8.3716   46.2918   20.5721 H         1 COL         0.2352
@<TRIPOS>BOND
     1    1    2 1  
     2    1    6 1  
     3    2    3 1  
     4    3    4 2  
     5    3    7 1  
     6    4    5 1  
     7    4    9 1  
     8    5    6 1  
     9    7    8 1  
    10    8    9 2  
    11    8   13 1  
    12    9   10 1  
    13   10   11 ar 
    14   10   12 ar 
    15   13   14 am 
    16   14   15 1  
    17   14   18 2  
    18   15   16 ar 
    19   15   17 ar 
    20    2   19 1  
    21    2   20 1  
    22    5   21 1  
    23    5   22 1  
    24    6   23 1  
    25    6   24 1  
    26   13   25 1  
@<TRIPOS>SUBSTRUCTURE
     1 COL         1

