### 
### Created by X-TOOL on Mon Sep 10 21:12:47 2018
### 

@<TRIPOS>MOLECULE
1gfz_ligand
   24    25     1     0     0
SMALL
GAST_HUCK


@<TRIPOS>ATOM
      1 N1         38.9840   37.0340   29.9650 N.am      1 CFF        -0.1740
      2 C2         38.4900   35.8800   29.0750 C.2       1 CFF         0.3177
      3 C10        39.9540   37.9900   29.3080 C.3       1 CFF         0.0477
      4 C6         38.6080   37.2070   31.3250 C.2       1 CFF         0.2297
      5 N3         37.6350   35.0650   29.7120 N.am      1 CFF        -0.2025
      6 O11        38.8880   35.8200   27.9430 O.2       1 CFF        -0.3873
      7 C12        37.0800   33.9050   28.9680 C.3       1 CFF         0.0446
      8 C4         37.2180   35.2060   31.0620 C.2       1 CFF         0.1377
      9 C5         37.6480   36.2440   31.8440 C.2       1 CFF         0.1624
     10 N9         36.3750   34.4240   31.7000 N.2       1 CFF        -0.2859
     11 O13        39.0560   38.2000   32.0060 O.2       1 CFF        -0.4007
     12 N7         37.0550   36.0650   33.0970 N.pl3     1 CFF        -0.2541
     13 C8         36.2960   34.9680   32.9260 C.2       1 CFF         0.0975
     14 C14        37.2010   36.9290   34.3060 C.3       1 CFF         0.0424
     15 H1         40.1150   37.6881   28.2626 H         1 CFF         0.0539
     16 H2         40.9123   37.9684   29.8475 H         1 CFF         0.0539
     17 H3         39.5403   39.0089   29.3359 H         1 CFF         0.0539
     18 H4         37.4749   33.9050   27.9413 H         1 CFF         0.0548
     19 H5         35.9829   33.9790   28.9388 H         1 CFF         0.0548
     20 H6         37.3713   32.9722   29.4729 H         1 CFF         0.0548
     21 H7         35.6696   34.5551   33.7154 H         1 CFF         0.1263
     22 H8         37.9083   37.7436   34.0912 H         1 CFF         0.0575
     23 H9         37.5800   36.3258   35.1442 H         1 CFF         0.0575
     24 H10        36.2223   37.3542   34.5732 H         1 CFF         0.0575
@<TRIPOS>BOND
     1    1    2 am 
     2    1    3 1  
     3    1    4 am 
     4    2    5 am 
     5    2    6 2  
     6    4    9 1  
     7    4   11 2  
     8    5    7 1  
     9    5    8 1  
    10    8    9 2  
    11    8   10 1  
    12    9   12 1  
    13   10   13 2  
    14   12   13 1  
    15   12   14 1  
    16    3   15 1  
    17    3   16 1  
    18    3   17 1  
    19    7   18 1  
    20    7   19 1  
    21    7   20 1  
    22   13   21 1  
    23   14   22 1  
    24   14   23 1  
    25   14   24 1  
@<TRIPOS>SUBSTRUCTURE
     1 CFF         1

