### 
### Created by X-TOOL on Mon Sep 10 21:12:47 2018
### 

@<TRIPOS>MOLECULE
1ggd_ligand
   48    48     1     0     0
SMALL
GAST_HUCK


@<TRIPOS>ATOM
      1 CX         31.5080    2.0840   42.0320 C.2       1 FAF         0.1751
      2 OX         30.6660    2.9800   42.1110 O.2       1 FAF        -0.3972
      3 CAX        32.1850    1.5580   43.2890 C.3       1 FAF         0.0258
      4 NL         31.8720    1.5300   40.8810 N.am      1 FAF        -0.2658
      5 CAL        31.3140    1.9880   39.6180 C.3       1 FAF         0.1310
      6 CBL        32.2020    1.5480   38.4560 C.3       1 FAF        -0.0101
      7 CGL        33.5960    2.1670   38.4130 C.3       1 FAF        -0.0425
      8 CDL        34.0640    2.2360   36.9660 C.3       1 FAF        -0.0625
      9 CDM        33.5790    3.5520   39.0390 C.3       1 FAF        -0.0625
     10 C          29.9050    1.4630   39.4010 C.2       1 FAF         0.2021
     11 O          29.6170    0.2960   39.6390 O.2       1 FAF        -0.3945
     12 N          29.0250    2.3360   38.9340 N.am      1 FAF        -0.2778
     13 CA         27.6430    1.9550   38.6950 C.3       1 FAF         0.0745
     14 CB         26.6950    3.0600   39.1890 C.3       1 FAF         0.0061
     15 CG         26.6600    3.2170   40.7010 C.ar      1 FAF        -0.0408
     16 CD1        27.0500    2.1730   41.5310 C.ar      1 FAF        -0.0603
     17 CD2        26.2360    4.4090   41.2900 C.ar      1 FAF        -0.0603
     18 CE1        27.0210    2.3050   42.9230 C.ar      1 FAF        -0.0686
     19 CE2        26.2010    4.5570   42.6830 C.ar      1 FAF        -0.0686
     20 CZ         26.5950    3.4970   43.5030 C.ar      1 FAF        -0.0687
     21 CW         27.4750    1.7290   37.2060 C.3       1 FAF         0.0689
     22 OW         26.3130    0.9760   36.9940 O.3       1 FAF        -0.3926
     23 H1         32.8997    0.7673   43.0170 H         1 FAF         0.0467
     24 H2         31.4253    1.1470   43.9701 H         1 FAF         0.0467
     25 H3         32.7196    2.3793   43.7886 H         1 FAF         0.0467
     26 H4         32.5403    0.7861   40.8827 H         1 FAF         0.1882
     27 H5         31.2762    3.0872   39.6369 H         1 FAF         0.0800
     28 H6         31.6874    1.8105   37.5199 H         1 FAF         0.0315
     29 H7         32.3196    0.4560   38.5160 H         1 FAF         0.0315
     30 H8         34.2890    1.5307   38.9830 H         1 FAF         0.0298
     31 H9         35.0690    2.6814   36.9266 H         1 FAF         0.0232
     32 H10        33.3655    2.8550   36.3838 H         1 FAF         0.0232
     33 H11        34.0958    1.2215   36.5421 H         1 FAF         0.0232
     34 H12        33.2384    3.4786   40.0824 H         1 FAF         0.0232
     35 H13        32.8936    4.2012   38.4744 H         1 FAF         0.0232
     36 H14        34.5926    3.9785   39.0133 H         1 FAF         0.0232
     37 H15        29.3165    3.2732   38.7426 H         1 FAF         0.1857
     38 H16        27.4188    1.0231   39.2347 H         1 FAF         0.0601
     39 H17        25.6782    2.8233   38.8426 H         1 FAF         0.0449
     40 H18        27.0190    4.0151   38.7499 H         1 FAF         0.0449
     41 H19        27.3827    1.2395   41.0917 H         1 FAF         0.0557
     42 H20        25.9283    5.2349   40.6589 H         1 FAF         0.0557
     43 H21        27.3307    1.4779   43.5515 H         1 FAF         0.0599
     44 H22        25.8694    5.4907   43.1227 H         1 FAF         0.0599
     45 H23        26.5693    3.6015   44.5816 H         1 FAF         0.0559
     46 H24        28.3460    1.1836   36.8138 H         1 FAF         0.0582
     47 H25        27.3871    2.6977   36.6922 H         1 FAF         0.0582
     48 H26        26.3920    0.1413   37.4406 H         1 FAF         0.2095
@<TRIPOS>BOND
     1    1    2 2  
     2    1    3 1  
     3    1    4 am 
     4    4    5 1  
     5    5    6 1  
     6    5   10 1  
     7    6    7 1  
     8    7    8 1  
     9    7    9 1  
    10   10   11 2  
    11   10   12 am 
    12   12   13 1  
    13   13   14 1  
    14   13   21 1  
    15   14   15 1  
    16   15   16 ar 
    17   15   17 ar 
    18   16   18 ar 
    19   17   19 ar 
    20   18   20 ar 
    21   19   20 ar 
    22   21   22 1  
    23    3   23 1  
    24    3   24 1  
    25    3   25 1  
    26    4   26 1  
    27    5   27 1  
    28    6   28 1  
    29    6   29 1  
    30    7   30 1  
    31    8   31 1  
    32    8   32 1  
    33    8   33 1  
    34    9   34 1  
    35    9   35 1  
    36    9   36 1  
    37   12   37 1  
    38   13   38 1  
    39   14   39 1  
    40   14   40 1  
    41   16   41 1  
    42   17   42 1  
    43   18   43 1  
    44   19   44 1  
    45   20   45 1  
    46   21   46 1  
    47   21   47 1  
    48   22   48 1  
@<TRIPOS>SUBSTRUCTURE
     1 FAF         1

