### 
### Created by X-TOOL on Mon Sep 10 21:12:49 2018
### 

@<TRIPOS>MOLECULE
1ghv_ligand
   31    33     1     0     0
SMALL
GAST_HUCK


@<TRIPOS>ATOM
      1 C1         11.8160  -11.7880   22.9290 C.ar      1 120         0.0088
      2 C2         12.3380  -10.5140   22.5970 C.ar      1 120        -0.0716
      3 C3         13.2450  -10.3690   21.5590 C.ar      1 120        -0.0423
      4 C4         13.5950  -11.5020   20.8900 C.ar      1 120         0.0760
      5 C5         13.1270  -12.7400   21.1680 C.ar      1 120         0.0205
      6 C6         12.2210  -12.9280   22.1960 C.ar      1 120        -0.0600
      7 C7         10.9220  -11.9140   23.9730 C.cat     1 120         0.2285
      8 N1         10.2600  -13.0300   24.0920 N.pl3     1 120        -0.2733
      9 N2         10.7710  -10.9130   24.8170 N.pl3     1 120        -0.2733
     10 N3         14.3940  -11.6540   19.9230 N.pl3     1 120        -0.2570
     11 N4         13.6190  -13.6650   20.3810 N.2       1 120        -0.3259
     12 C8         14.4070  -12.9200   19.6150 C.2       1 120         0.1213
     13 C1'        15.1520  -13.4170   18.5520 C.2       1 120         0.0844
     14 C2'        14.9440  -14.7360   18.1510 C.2       1 120        -0.0514
     15 C3'        15.6750  -15.2340   17.0950 C.2       1 120        -0.0270
     16 C4'        16.5960  -14.4010   16.4620 C.2       1 120         0.0756
     17 N5'        16.7800  -13.1550   16.8550 N.am      1 120        -0.2126
     18 C6'        16.1130  -12.6250   17.8570 C.2       1 120         0.2202
     19 O6'        16.3280  -11.4690   18.1790 O.2       1 120        -0.4115
     20 H1         12.0248   -9.6428   23.1608 H         1 120         0.0528
     21 H2         13.6553   -9.4016   21.2930 H         1 120         0.0536
     22 H3         11.8352  -13.9133   22.4315 H         1 120         0.0531
     23 H4          9.5868  -13.1498   24.8623 H         1 120         0.3180
     24 H5         10.4099  -13.7924   23.4158 H         1 120         0.3180
     25 H6         11.3124  -10.0461   24.6899 H         1 120         0.3180
     26 H7         10.1116  -10.9977   25.6037 H         1 120         0.3180
     27 H8         14.9374  -10.9107   19.4612 H         1 120         0.2264
     28 H9         14.2157  -15.3622   18.6641 H         1 120         0.0745
     29 H10        15.5357  -16.2609   16.7604 H         1 120         0.0419
     30 H11        17.1762  -14.7869   15.6251 H         1 120         0.1327
     31 H12        17.4518  -12.5925   16.3730 H         1 120         0.2636
@<TRIPOS>BOND
     1    1    7 1  
     2    1    6 ar 
     3    1    2 ar 
     4    2    3 ar 
     5    3    4 ar 
     6    4   10 1  
     7    4    5 ar 
     8    5   11 1  
     9    5    6 ar 
    10   11   12 2  
    11   12   13 1  
    12   12   10 1  
    13   13   18 1  
    14   13   14 2  
    15   14   15 1  
    16   15   16 2  
    17   16   17 am 
    18   17   18 am 
    19   18   19 2  
    20    7    9 ar 
    21    7    8 ar 
    22    2   20 1  
    23    3   21 1  
    24    6   22 1  
    25    8   23 1  
    26    8   24 1  
    27    9   25 1  
    28    9   26 1  
    29   10   27 1  
    30   14   28 1  
    31   15   29 1  
    32   16   30 1  
    33   17   31 1  
@<TRIPOS>SUBSTRUCTURE
     1 120         1

