### 
### Created by X-TOOL on Mon Sep 10 21:12:49 2018
### 

@<TRIPOS>MOLECULE
1ghw_ligand
   32    34     1     0     0
SMALL
GAST_HUCK


@<TRIPOS>ATOM
      1 C1         11.9400  -11.6230   22.6350 C.ar      1 BMZ         0.0108
      2 C2         12.3090  -10.3510   22.2020 C.ar      1 BMZ        -0.0697
      3 C3         13.1330  -10.1780   21.1080 C.ar      1 BMZ        -0.0400
      4 C4         13.5670  -11.3000   20.4780 C.ar      1 BMZ         0.0805
      5 C5         13.2300  -12.5500   20.8730 C.ar      1 BMZ         0.0294
      6 C6         12.4090  -12.7540   21.9610 C.ar      1 BMZ        -0.0569
      7 C7         11.1050  -11.7470   23.7260 C.cat     1 BMZ         0.2290
      8 N1         10.4230  -12.8530   23.8610 N.pl3     1 BMZ        -0.2732
      9 N2         11.0150  -10.7570   24.5920 N.pl3     1 BMZ        -0.2732
     10 N3         14.3270  -11.4430   19.4570 N.pl3     1 BMZ        -0.2511
     11 N4         13.7620  -13.4800   20.1240 N.2       1 BMZ        -0.3105
     12 C8         14.4430  -12.7270   19.2500 C.2       1 BMZ         0.1364
     13 C1'        15.2270  -13.2350   18.2020 C.ar      1 BMZ         0.0650
     14 C2'        15.2250  -14.6110   17.9170 C.ar      1 BMZ        -0.0515
     15 C3'        15.9960  -15.1170   16.8810 C.ar      1 BMZ        -0.0671
     16 C4'        16.7850  -14.2600   16.1170 C.ar      1 BMZ        -0.0660
     17 C5'        16.7960  -12.8940   16.3950 C.ar      1 BMZ        -0.0265
     18 C6'        16.0230  -12.3770   17.4340 C.ar      1 BMZ         0.1093
     19 O6'        16.0550  -11.0250   17.6910 O.3       1 BMZ        -0.3265
     20 H1         11.9421   -9.4809   22.7343 H         1 BMZ         0.0541
     21 H2         13.4209   -9.1902   20.7669 H         1 BMZ         0.0544
     22 H3         12.1374  -13.7532   22.2817 H         1 BMZ         0.0548
     23 H4          9.7916  -12.9737   24.6658 H         1 BMZ         0.3180
     24 H5         10.5167  -13.6043   23.1627 H         1 BMZ         0.3180
     25 H6         11.5682   -9.8993   24.4531 H         1 BMZ         0.3180
     26 H7         10.3915  -10.8412   25.4075 H         1 BMZ         0.3180
     27 H8         14.7628  -10.6901   18.9054 H         1 BMZ         0.2296
     28 H9         14.6160  -15.2824   18.5116 H         1 BMZ         0.0635
     29 H10        15.9846  -16.1794   16.6658 H         1 BMZ         0.0539
     30 H11        17.3891  -14.6545   15.3080 H         1 BMZ         0.0625
     31 H12        17.4101  -12.2287   15.7989 H         1 BMZ         0.0554
     32 H13        15.4806  -10.8290   18.4219 H         1 BMZ         0.2519
@<TRIPOS>BOND
     1    1    2 ar 
     2    1    6 ar 
     3    1    7 1  
     4    2    3 ar 
     5    3    4 ar 
     6    4    5 ar 
     7    4   10 1  
     8    5    6 ar 
     9    5   11 1  
    10    7    8 ar 
    11    7    9 ar 
    12   10   12 1  
    13   11   12 2  
    14   12   13 1  
    15   13   14 ar 
    16   13   18 ar 
    17   14   15 ar 
    18   15   16 ar 
    19   16   17 ar 
    20   17   18 ar 
    21   18   19 1  
    22    2   20 1  
    23    3   21 1  
    24    6   22 1  
    25    8   23 1  
    26    8   24 1  
    27    9   25 1  
    28    9   26 1  
    29   10   27 1  
    30   14   28 1  
    31   15   29 1  
    32   16   30 1  
    33   17   31 1  
    34   19   32 1  
@<TRIPOS>SUBSTRUCTURE
     1 BMZ         1

