### 
### Created by X-TOOL on Mon Sep 10 21:12:49 2018
### 

@<TRIPOS>MOLECULE
1ghy_ligand
   31    33     1     0     0
SMALL
GAST_HUCK


@<TRIPOS>ATOM
      1 C1         12.1290  -11.7940   22.8500 C.ar      1 121         0.0135
      2 C2         12.1340  -10.7030   21.9600 C.ar      1 121        -0.0706
      3 C3         13.0630  -10.6080   20.9460 C.ar      1 121        -0.0607
      4 C4         13.9750  -11.6260   20.8300 C.ar      1 121         0.0333
      5 C5         13.9850  -12.6930   21.6780 C.ar      1 121         0.0823
      6 C6         13.0700  -12.8160   22.7070 C.ar      1 121        -0.0338
      7 C7         11.2050  -11.8130   23.8750 C.cat     1 121         0.2305
      8 N1         10.5580  -12.8920   24.1770 N.pl3     1 121        -0.2728
      9 N2         11.0250  -10.6920   24.5390 N.pl3     1 121        -0.2728
     10 N3         14.9670  -11.7520   20.0020 N.2       1 121        -0.3040
     11 N4         14.9880  -13.4550   21.3550 N.pl3     1 121        -0.2489
     12 C8         15.5810  -12.8680   20.3340 C.2       1 121         0.1548
     13 C1'        16.7500  -13.3560   19.7150 C.ar      1 121         0.1348
     14 N2'        17.5630  -14.0260   20.5190 N.ar      1 121        -0.2910
     15 C3'        18.7250  -14.5340   20.1550 C.ar      1 121         0.0036
     16 C4'        19.1630  -14.3720   18.8460 C.ar      1 121        -0.0391
     17 C5'        18.3540  -13.6700   17.9400 C.ar      1 121        -0.0077
     18 C6'        17.1250  -13.1490   18.3620 C.ar      1 121         0.1359
     19 O6'        16.3480  -12.4580   17.4410 O.3       1 121        -0.3190
     20 H1         11.3917   -9.9213   22.0746 H         1 121         0.0525
     21 H2         13.0724   -9.7627   20.2675 H         1 121         0.0554
     22 H3         13.0824  -13.6698   23.3748 H         1 121         0.0547
     23 H4          9.8728  -12.8834   24.9460 H         1 121         0.3180
     24 H5         10.7282  -13.7595   23.6485 H         1 121         0.3180
     25 H6         11.5536   -9.8477   24.2770 H         1 121         0.3180
     26 H7         10.3554  -10.6584   25.3209 H         1 121         0.3180
     27 H8         15.2637  -14.3391   21.8059 H         1 121         0.2302
     28 H9         19.3335  -15.0737   20.8716 H         1 121         0.0749
     29 H10        20.1154  -14.7819   18.5298 H         1 121         0.0707
     30 H11        18.6798  -13.5313   16.9155 H         1 121         0.0671
     31 H12        15.5484  -12.1632   17.8608 H         1 121         0.2544
@<TRIPOS>BOND
     1    7    1 1  
     2    1    6 ar 
     3    1    2 ar 
     4    2    3 ar 
     5    3    4 ar 
     6    4   10 1  
     7    4    5 ar 
     8    5   11 1  
     9    6    5 ar 
    10   11   12 1  
    11   12   13 1  
    12   10   12 2  
    13   13   18 ar 
    14   13   14 ar 
    15   14   15 ar 
    16   15   16 ar 
    17   16   17 ar 
    18   18   17 ar 
    19   18   19 1  
    20    7    9 ar 
    21    7    8 ar 
    22    2   20 1  
    23    3   21 1  
    24    6   22 1  
    25    8   23 1  
    26    8   24 1  
    27    9   25 1  
    28    9   26 1  
    29   11   27 1  
    30   15   28 1  
    31   16   29 1  
    32   17   30 1  
    33   19   31 1  
@<TRIPOS>SUBSTRUCTURE
     1 121         1

