### 
### Created by X-TOOL on Mon Sep 10 21:12:48 2018
### 

@<TRIPOS>MOLECULE
1ghz_ligand
   31    33     1     0     0
SMALL
GAST_HUCK


@<TRIPOS>ATOM
      1 C1         45.5210   19.3220   52.9710 C.ar      1 120         0.0088
      2 C2         44.9600   18.9450   51.7100 C.ar      1 120        -0.0716
      3 C3         44.6630   19.8760   50.7100 C.ar      1 120        -0.0423
      4 C4         44.9430   21.1740   51.0030 C.ar      1 120         0.0760
      5 C5         45.4780   21.5930   52.1780 C.ar      1 120         0.0205
      6 C6         45.7850   20.7080   53.2020 C.ar      1 120        -0.0600
      7 C7         45.8050   18.3410   53.9180 C.cat     1 120         0.2285
      8 N1         46.5150   18.6530   54.9580 N.pl3     1 120        -0.2733
      9 N2         45.3730   17.1190   53.7560 N.pl3     1 120        -0.2733
     10 N3         44.7760   22.2190   50.2680 N.pl3     1 120        -0.2570
     11 N4         45.6450   22.9130   52.2160 N.2       1 120        -0.3259
     12 C8         45.1820   23.2150   50.9930 C.2       1 120         0.1213
     13 C1'        45.2120   24.5160   50.4390 C.2       1 120         0.0844
     14 C2'        45.9180   25.5190   51.0800 C.2       1 120        -0.0514
     15 C3'        45.9540   26.7840   50.5520 C.2       1 120        -0.0270
     16 C4'        45.3000   27.0960   49.3770 C.2       1 120         0.0756
     17 N5'        44.6330   26.1090   48.7910 N.am      1 120        -0.2126
     18 C6'        44.5300   24.8470   49.2100 C.2       1 120         0.2202
     19 O6'        43.8810   24.0230   48.5860 O.2       1 120        -0.4115
     20 H1         44.7573   17.8967   51.5226 H         1 120         0.0528
     21 H2         44.2354   19.5809   49.7586 H         1 120         0.0536
     22 H3         46.2076   21.0534   54.1386 H         1 120         0.0531
     23 H4         46.7327   17.9377   55.6664 H         1 120         0.3180
     24 H5         46.8610   19.6160   55.0753 H         1 120         0.3180
     25 H6         44.8097   16.8774   52.9282 H         1 120         0.3180
     26 H7         45.5956   16.3970   54.4560 H         1 120         0.3180
     27 H8         44.4004   22.2556   49.3096 H         1 120         0.2264
     28 H9         46.4469   25.3028   52.0071 H         1 120         0.0745
     29 H10        46.5120   27.5612   51.0721 H         1 120         0.0419
     30 H11        45.3296   28.0987   48.9532 H         1 120         0.1327
     31 H12        44.1555   26.3367   47.9424 H         1 120         0.2636
@<TRIPOS>BOND
     1    7    1 1  
     2    1    6 ar 
     3    1    2 ar 
     4    2    3 ar 
     5    3    4 ar 
     6    4   10 1  
     7    4    5 ar 
     8    5   11 1  
     9    6    5 ar 
    10   11   12 2  
    11   12   13 1  
    12   10   12 1  
    13   13   18 1  
    14   13   14 2  
    15   14   15 1  
    16   15   16 2  
    17   16   17 am 
    18   18   17 am 
    19   18   19 2  
    20    7    9 ar 
    21    7    8 ar 
    22    2   20 1  
    23    3   21 1  
    24    6   22 1  
    25    8   23 1  
    26    8   24 1  
    27    9   25 1  
    28    9   26 1  
    29   10   27 1  
    30   14   28 1  
    31   15   29 1  
    32   16   30 1  
    33   17   31 1  
@<TRIPOS>SUBSTRUCTURE
     1 120         1

