### 
### Created by X-TOOL on Mon Sep 10 21:12:48 2018
### 

@<TRIPOS>MOLECULE
1gi1_ligand
   32    34     1     0     0
SMALL
GAST_HUCK


@<TRIPOS>ATOM
      1 C1         29.4210   15.0020   17.0370 C.ar      1 BMZ         0.0108
      2 C2         28.8930   15.8180   18.0960 C.ar      1 BMZ        -0.0697
      3 C3         28.5980   15.3160   19.3690 C.ar      1 BMZ        -0.0400
      4 C4         28.8270   13.9780   19.5530 C.ar      1 BMZ         0.0805
      5 C5         29.3210   13.1610   18.5880 C.ar      1 BMZ         0.0294
      6 C6         29.6350   13.6280   17.3210 C.ar      1 BMZ        -0.0569
      7 C7         29.6800   15.5650   15.7540 C.cat     1 BMZ         0.2290
      8 N1         30.4010   14.8940   14.8730 N.pl3     1 BMZ        -0.2732
      9 N2         29.2050   16.7530   15.4620 N.pl3     1 BMZ        -0.2732
     10 N3         28.6260   13.2350   20.5950 N.pl3     1 BMZ        -0.2511
     11 N4         29.4480   11.9030   19.0050 N.2       1 BMZ        -0.3105
     12 C8         28.9910   12.0450   20.2460 C.2       1 BMZ         0.1364
     13 C1'        28.8670   10.9880   21.1720 C.ar      1 BMZ         0.0650
     14 C2'        29.4510    9.7290   20.9700 C.ar      1 BMZ        -0.0515
     15 C3'        29.2910    8.6930   21.8900 C.ar      1 BMZ        -0.0671
     16 C4'        28.5360    8.8870   23.0280 C.ar      1 BMZ        -0.0660
     17 C5'        27.9540   10.1080   23.2610 C.ar      1 BMZ        -0.0265
     18 C6'        28.1100   11.1460   22.3510 C.ar      1 BMZ         0.1093
     19 O6'        27.4980   12.3310   22.6670 O.3       1 BMZ        -0.3265
     20 H1         28.7153   16.8692   17.9001 H         1 BMZ         0.0541
     21 H2         28.2119   15.9476   20.1609 H         1 BMZ         0.0544
     22 H3         30.0340   12.9603   16.5660 H         1 BMZ         0.0548
     23 H4         30.5889   15.2999   13.9452 H         1 BMZ         0.3180
     24 H5         30.7750   13.9651   15.1141 H         1 BMZ         0.3180
     25 H6         28.6441   17.2681   16.1555 H         1 BMZ         0.3180
     26 H7         29.3931   17.1703   14.5393 H         1 BMZ         0.3180
     27 H8         28.2538   13.5302   21.5089 H         1 BMZ         0.2296
     28 H9         30.0411    9.5569   20.0771 H         1 BMZ         0.0635
     29 H10        29.7612    7.7329   21.7103 H         1 BMZ         0.0539
     30 H11        28.4027    8.0773   23.7364 H         1 BMZ         0.0625
     31 H12        27.3692   10.2633   24.1604 H         1 BMZ         0.0554
     32 H13        27.6682   12.9666   21.9817 H         1 BMZ         0.2519
@<TRIPOS>BOND
     1    1    2 ar 
     2    1    6 ar 
     3    1    7 1  
     4    2    3 ar 
     5    3    4 ar 
     6    4    5 ar 
     7    4   10 1  
     8    5    6 ar 
     9    5   11 1  
    10    7    8 ar 
    11    7    9 ar 
    12   10   12 1  
    13   11   12 2  
    14   12   13 1  
    15   13   14 ar 
    16   13   18 ar 
    17   14   15 ar 
    18   15   16 ar 
    19   16   17 ar 
    20   17   18 ar 
    21   18   19 1  
    22    2   20 1  
    23    3   21 1  
    24    6   22 1  
    25    8   23 1  
    26    8   24 1  
    27    9   25 1  
    28    9   26 1  
    29   10   27 1  
    30   14   28 1  
    31   15   29 1  
    32   16   30 1  
    33   17   31 1  
    34   19   32 1  
@<TRIPOS>SUBSTRUCTURE
     1 BMZ         1

