### 
### Created by X-TOOL on Mon Sep 10 21:12:49 2018
### 

@<TRIPOS>MOLECULE
1gi4_ligand
   32    34     1     0     0
SMALL
GAST_HUCK


@<TRIPOS>ATOM
      1 C1         43.8450   -2.6200   26.3150 C.ar      1 122         0.0127
      2 C2         44.3910   -1.3120   26.5250 C.ar      1 122        -0.0715
      3 C3         44.2550   -0.5740   27.7130 C.ar      1 122        -0.0621
      4 C4         43.5460   -1.2100   28.6920 C.ar      1 122         0.0294
      5 C5         43.0360   -2.4460   28.5270 C.ar      1 122         0.0805
      6 C6         43.1400   -3.1860   27.3870 C.ar      1 122        -0.0348
      7 C7         44.0280   -3.3280   25.1170 C.cat     1 122         0.2301
      8 N1         43.8400   -4.6310   25.0870 N.pl3     1 122        -0.2729
      9 N2         44.3860   -2.6840   24.0310 N.pl3     1 122        -0.2729
     10 N3         43.3130   -0.7180   29.8950 N.2       1 122        -0.3105
     11 N4         42.4440   -2.7370   29.6330 N.pl3     1 122        -0.2511
     12 C8         42.6130   -1.7180   30.4190 C.2       1 122         0.1364
     13 C1'        42.0620   -1.7300   31.7660 C.ar      1 122         0.0650
     14 C2'        41.1150   -2.7470   32.1220 C.ar      1 122        -0.0515
     15 C3'        40.5390   -2.8090   33.3720 C.ar      1 122        -0.0671
     16 C4'        40.8740   -1.8690   34.3340 C.ar      1 122        -0.0660
     17 C5'        41.7850   -0.8480   34.0790 C.ar      1 122        -0.0265
     18 C6'        42.3750   -0.7780   32.8230 C.ar      1 122         0.1093
     19 O6'        43.2710    0.2670   32.7590 O.3       1 122        -0.3265
     20 H1         44.9473   -0.8607   25.7114 H         1 122         0.0522
     21 H2         44.6770    0.4162   27.8416 H         1 122         0.0548
     22 H3         42.6958   -4.1720   27.3121 H         1 122         0.0544
     23 H4         43.9743   -5.1506   24.2079 H         1 122         0.3180
     24 H5         43.5587   -5.1306   25.9427 H         1 122         0.3180
     25 H6         44.5315   -1.6648   24.0610 H         1 122         0.3180
     26 H7         44.5215   -3.1978   23.1486 H         1 122         0.3180
     27 H8         41.9367   -3.6065   29.8508 H         1 122         0.2296
     28 H9         40.8435   -3.4918   31.3826 H         1 122         0.0635
     29 H10        39.8251   -3.5915   33.6027 H         1 122         0.0539
     30 H11        40.4132   -1.9308   35.3132 H         1 122         0.0625
     31 H12        42.0295   -0.1215   34.8455 H         1 122         0.0554
     32 H13        43.6613    0.2955   31.8933 H         1 122         0.2519
@<TRIPOS>BOND
     1    7    1 1  
     2    1    6 ar 
     3    1    2 ar 
     4    2    3 ar 
     5    3    4 ar 
     6    4   10 1  
     7    4    5 ar 
     8    5   11 1  
     9    6    5 ar 
    10   11   12 1  
    11   12   13 1  
    12   10   12 2  
    13   13   18 ar 
    14   13   14 ar 
    15   14   15 ar 
    16   15   16 ar 
    17   16   17 ar 
    18   18   17 ar 
    19   18   19 1  
    20    7    9 ar 
    21    7    8 ar 
    22    2   20 1  
    23    3   21 1  
    24    6   22 1  
    25    8   23 1  
    26    8   24 1  
    27    9   25 1  
    28    9   26 1  
    29   11   27 1  
    30   14   28 1  
    31   15   29 1  
    32   16   30 1  
    33   17   31 1  
    34   19   32 1  
@<TRIPOS>SUBSTRUCTURE
     1 122         1

