### 
### Created by X-TOOL on Mon Sep 10 21:12:49 2018
### 

@<TRIPOS>MOLECULE
1gi7_ligand
   31    33     1     0     0
SMALL
GAST_HUCK


@<TRIPOS>ATOM
      1 C1          8.9630    0.7940   25.0180 C.ar      1 120         0.0088
      2 C2          9.5610    1.0090   23.7500 C.ar      1 120        -0.0716
      3 C3          9.9900    2.2670   23.3380 C.ar      1 120        -0.0423
      4 C4          9.8150    3.3180   24.2040 C.ar      1 120         0.0760
      5 C5          9.2550    3.1780   25.4140 C.ar      1 120         0.0205
      6 C6          8.8170    1.9330   25.8500 C.ar      1 120        -0.0600
      7 C7          8.5420   -0.4870   25.4260 C.cat     1 120         0.2285
      8 N1          7.8380   -0.6200   26.5240 N.pl3     1 120        -0.2733
      9 N2          8.8560   -1.5390   24.7120 N.pl3     1 120        -0.2733
     10 N3         10.1100    4.5660   24.1150 N.pl3     1 120        -0.2570
     11 N4          9.1890    4.3050   26.0850 N.2       1 120        -0.3259
     12 C8          9.7410    5.1530   25.2240 C.2       1 120         0.1213
     13 C1'         9.8790    6.5270   25.4620 C.2       1 120         0.0844
     14 C2'         9.6770    7.0270   26.7400 C.2       1 120        -0.0514
     15 C3'         9.8110    8.3740   26.9850 C.2       1 120        -0.0270
     16 C4'        10.1480    9.2360   25.9560 C.2       1 120         0.0756
     17 N5'        10.3390    8.7610   24.7400 N.am      1 120        -0.2126
     18 C6'        10.2210    7.4720   24.4500 C.2       1 120         0.2202
     19 O6'        10.3930    7.0970   23.3080 O.2       1 120        -0.4115
     20 H1          9.6879    0.1662   23.0802 H         1 120         0.0528
     21 H2         10.4471    2.4124   22.3659 H         1 120         0.0536
     22 H3          8.3625    1.8324   26.8289 H         1 120         0.0531
     23 H4          7.5277   -1.5543   26.8268 H         1 120         0.3180
     24 H5          7.5952    0.2098   27.0838 H         1 120         0.3180
     25 H6          9.4092   -1.4300   23.8501 H         1 120         0.3180
     26 H7          8.5497   -2.4754   25.0124 H         1 120         0.3180
     27 H8         10.5593    5.0245   23.3095 H         1 120         0.2264
     28 H9          9.4116    6.3513   27.5517 H         1 120         0.0745
     29 H10         9.6517    8.7625   27.9898 H         1 120         0.0419
     30 H11        10.2551   10.3023   26.1493 H         1 120         0.1327
     31 H12        10.5823    9.3977   24.0083 H         1 120         0.2636
@<TRIPOS>BOND
     1    7    1 1  
     2    1    6 ar 
     3    1    2 ar 
     4    2    3 ar 
     5    3    4 ar 
     6    4   10 1  
     7    4    5 ar 
     8    5   11 1  
     9    6    5 ar 
    10   11   12 2  
    11   12   13 1  
    12   10   12 1  
    13   13   18 1  
    14   13   14 2  
    15   14   15 1  
    16   15   16 2  
    17   16   17 am 
    18   18   17 am 
    19   18   19 2  
    20    7    9 ar 
    21    7    8 ar 
    22    2   20 1  
    23    3   21 1  
    24    6   22 1  
    25    8   23 1  
    26    8   24 1  
    27    9   25 1  
    28    9   26 1  
    29   10   27 1  
    30   14   28 1  
    31   15   29 1  
    32   16   30 1  
    33   17   31 1  
@<TRIPOS>SUBSTRUCTURE
     1 120         1

