### 
### Created by X-TOOL on Mon Sep 10 21:12:49 2018
### 

@<TRIPOS>MOLECULE
1gj4_ligand
   43    46     1     0     0
SMALL
GAST_HUCK


@<TRIPOS>ATOM
      1 H1         13.6640   -9.3593   21.9255 H         1 132         0.0545
      2 H2         11.1909  -13.6090   22.5824 H         1 132         0.0531
      3 H3          9.3482  -13.1234   25.2922 H         1 132         0.3180
      4 H4         10.2779  -13.7510   23.9049 H         1 132         0.3180
      5 H5         10.7343   -9.9114   25.1111 H         1 132         0.3180
      6 H6          9.6330  -11.0086   25.9863 H         1 132         0.3180
      7 H7         14.7085  -10.8240   19.8021 H         1 132         0.2230
      8 H8         12.6697  -14.4443   20.3892 H         1 132         0.0296
      9 H9         13.8630  -15.2521   18.9422 H         1 132         0.0593
     10 H10        15.1463  -16.3207   17.1370 H         1 132         0.0530
     11 H11        16.6823  -14.9921   15.7690 H         1 132         0.0593
     12 H12        15.1905  -10.9132   18.8927 H         1 132         0.2521
     13 H13        15.8144  -11.1042   15.2616 H         1 132         0.0606
     14 H14        17.4302   -9.9165   13.8620 H         1 132         0.0613
     15 H15        19.6923  -10.5041   13.9556 H         1 132         0.0603
     16 H16        20.5175  -12.5661   15.1598 H         1 132         0.0613
     17 C1         11.5230  -11.6140   23.3600 C.ar      1 132         0.0219
     18 C2         12.1890  -10.3760   23.1510 C.ar      1 132         0.0303
     19 C3         13.1160  -10.2800   22.0900 C.ar      1 132        -0.0299
     20 C4         13.3210  -11.3760   21.2570 C.ar      1 132         0.0630
     21 C5         12.6510  -12.5330   21.4660 C.ar      1 132        -0.0267
     22 C6         11.7400  -12.6810   22.4710 C.ar      1 132        -0.0694
     23 C7         10.5960  -11.8030   24.3840 C.cat     1 132         0.2289
     24 N1         10.0340  -12.9760   24.5380 N.pl3     1 132        -0.2733
     25 N2         10.3000  -10.8390   25.2200 N.pl3     1 132        -0.2733
     26 N3         14.0960  -11.5480   20.2040 N.pl3     1 132        -0.2761
     27 C9         13.0310  -13.4250   20.5170 C.2       1 132        -0.0575
     28 C8         13.9790  -12.7650   19.7410 C.2       1 132         0.0607
     29 C1'        14.6960  -13.2910   18.6550 C.ar      1 132         0.0382
     30 C2'        14.5530  -14.6550   18.3570 C.ar      1 132        -0.0590
     31 C3'        15.2700  -15.2620   17.3340 C.ar      1 132        -0.0712
     32 C4'        16.1340  -14.5180   16.5750 C.ar      1 132        -0.0615
     33 C5'        16.3170  -13.1620   16.8250 C.ar      1 132         0.0146
     34 C6'        15.5920  -12.5090   17.8800 C.ar      1 132         0.1121
     35 O6'        15.7540  -11.1520   18.1660 O.3       1 132        -0.3266
     36 C1'        17.2420  -12.4990   16.0310 C.ar      1 132        -0.0215
     37 C2'        16.8520  -11.4180   15.2550 C.ar      1 132        -0.0570
     38 C3'        17.7500  -10.7440   14.4850 C.ar      1 132        -0.0632
     39 C4'        18.9790  -11.1040   14.5090 C.ar      1 132        -0.0635
     40 C5'        19.4800  -12.2590   15.2260 C.ar      1 132        -0.0632
     41 C6'        18.5800  -12.9370   15.9860 C.ar      1 132        -0.0570
     42 CL2        11.9940   -8.9580   24.2310 Cl        1 132        -0.0800
     43 H17        18.8893  -13.8077   16.5529 H         1 132         0.0606
@<TRIPOS>BOND
     1   19    1 1  
     2   22    2 1  
     3   24    3 1  
     4   24    4 1  
     5   25    5 1  
     6   25    6 1  
     7   26    7 1  
     8   27    8 1  
     9   30    9 1  
    10   31   10 1  
    11   32   11 1  
    12   35   12 1  
    13   37   13 1  
    14   38   14 1  
    15   39   15 1  
    16   40   16 1  
    17   23   17 1  
    18   17   22 ar 
    19   17   18 ar 
    20   18   19 ar 
    21   19   20 ar 
    22   20   26 1  
    23   21   20 ar 
    24   21   27 1  
    25   22   21 ar 
    26   27   28 2  
    27   28   29 1  
    28   26   28 1  
    29   29   34 ar 
    30   29   30 ar 
    31   30   31 ar 
    32   31   32 ar 
    33   33   32 ar 
    34   33   36 1  
    35   34   33 ar 
    36   34   35 1  
    37   36   41 ar 
    38   36   37 ar 
    39   37   38 ar 
    40   38   39 ar 
    41   40   39 ar 
    42   41   40 ar 
    43   23   25 ar 
    44   23   24 ar 
    45   18   42 1  
    46   41   43 1  
@<TRIPOS>SUBSTRUCTURE
     1 132         1

