### 
### Created by X-TOOL on Mon Sep 10 21:12:49 2018
### 

@<TRIPOS>MOLECULE
1gj5_ligand
   42    45     1     0     0
SMALL
GAST_HUCK


@<TRIPOS>ATOM
      1 H1         11.7872   -9.3619   22.8083 H         1 130         0.0522
      2 H2         13.2387   -9.1021   20.8021 H         1 130         0.0548
      3 H3         11.9245  -13.6508   22.3436 H         1 130         0.0544
      4 H4          9.7090  -12.8618   24.8645 H         1 130         0.3180
      5 H5         10.3989  -13.5265   23.3596 H         1 130         0.3180
      6 H6         11.3870   -9.7617   24.5029 H         1 130         0.3180
      7 H7         10.2675  -10.7111   25.5169 H         1 130         0.3180
      8 H8         13.4098  -14.4219   20.1967 H         1 130         0.2296
      9 H9         14.3041  -15.2161   18.5829 H         1 130         0.0636
     10 H10        15.7707  -16.2354   16.8958 H         1 130         0.0542
     11 H11        17.3309  -14.8343   15.6180 H         1 130         0.0629
     12 H12        15.2931  -10.8125   18.4035 H         1 130         0.2537
     13 H13        16.4510  -10.7860   15.0037 H         1 130         0.0607
     14 H14        18.2350   -9.6933   13.6953 H         1 130         0.0613
     15 H15        20.5447  -10.5866   13.7169 H         1 130         0.0603
     16 H16        21.0872  -12.5663   15.1049 H         1 130         0.0613
     17 C1         11.7580  -11.5190   22.7200 C.ar      1 130         0.0127
     18 C2         12.1340  -10.2390   22.2740 C.ar      1 130        -0.0715
     19 C3         12.9480  -10.0860   21.1520 C.ar      1 130        -0.0621
     20 C4         13.3700  -11.2220   20.5040 C.ar      1 130         0.0294
     21 C5         13.0190  -12.4630   20.9080 C.ar      1 130         0.0805
     22 C6         12.2050  -12.6540   22.0230 C.ar      1 130        -0.0348
     23 C7         10.9580  -11.6400   23.8400 C.cat     1 130         0.2301
     24 N1         10.3100  -12.7540   24.0350 N.pl3     1 130        -0.2729
     25 N2         10.8640  -10.6310   24.6810 N.pl3     1 130        -0.2729
     26 N3         14.1000  -11.3850   19.4550 N.2       1 130        -0.3106
     27 N4         13.5120  -13.3990   20.1330 N.pl3     1 130        -0.2511
     28 C8         14.1830  -12.6670   19.2380 C.2       1 130         0.1366
     29 C1'        15.0200  -13.2090   18.2580 C.ar      1 130         0.0671
     30 C2'        14.9870  -14.5920   18.0180 C.ar      1 130        -0.0510
     31 C3'        15.8100  -15.1670   17.0750 C.ar      1 130        -0.0663
     32 C4'        16.6870  -14.3730   16.3580 C.ar      1 130        -0.0572
     33 C5'        16.7660  -12.9880   16.5620 C.ar      1 130         0.0195
     34 C6'        15.9160  -12.3970   17.5190 C.ar      1 130         0.1203
     35 O6'        15.9240  -11.0320   17.7280 O.3       1 130        -0.3234
     36 C1'        17.7440  -12.3010   15.8160 C.ar      1 130        -0.0204
     37 C2'        17.4600  -11.1810   15.0340 C.ar      1 130        -0.0568
     38 C3'        18.4670  -10.5680   14.2920 C.ar      1 130        -0.0632
     39 C4'        19.7720  -11.0660   14.3070 C.ar      1 130        -0.0634
     40 C5'        20.0750  -12.1790   15.0820 C.ar      1 130        -0.0632
     41 C6'        19.0730  -12.7960   15.8300 C.ar      1 130        -0.0568
     42 H17        19.3131  -13.6660   16.4305 H         1 130         0.0607
@<TRIPOS>BOND
     1   18    1 1  
     2   19    2 1  
     3   22    3 1  
     4   24    4 1  
     5   24    5 1  
     6   25    6 1  
     7   25    7 1  
     8   27    8 1  
     9   30    9 1  
    10   31   10 1  
    11   32   11 1  
    12   35   12 1  
    13   37   13 1  
    14   38   14 1  
    15   39   15 1  
    16   40   16 1  
    17   23   17 1  
    18   17   22 ar 
    19   17   18 ar 
    20   18   19 ar 
    21   19   20 ar 
    22   20   26 1  
    23   21   20 ar 
    24   21   27 1  
    25   22   21 ar 
    26   27   28 1  
    27   28   29 1  
    28   26   28 2  
    29   29   34 ar 
    30   29   30 ar 
    31   30   31 ar 
    32   31   32 ar 
    33   33   32 ar 
    34   33   36 1  
    35   34   33 ar 
    36   34   35 1  
    37   36   41 ar 
    38   36   37 ar 
    39   37   38 ar 
    40   38   39 ar 
    41   40   39 ar 
    42   41   40 ar 
    43   23   25 ar 
    44   23   24 ar 
    45   41   42 1  
@<TRIPOS>SUBSTRUCTURE
     1 130         1

