### 
### Created by X-TOOL on Fri Sep 26 17:34:20 2014
### 

@<TRIPOS>MOLECULE
1gj7_ligand
   43    46     1     0     0
SMALL
GAST_HUCK


@<TRIPOS>ATOM
      1 C1          8.5780    0.4240   24.9970 C.ar      1 MOL         0.0219
      2 C2          8.7520    0.4970   23.5850 C.ar      1 MOL         0.0303
      3 C3          9.1610    1.6830   22.9660 C.ar      1 MOL        -0.0299
      4 C4          9.3540    2.8100   23.7440 C.ar      1 MOL         0.0630
      5 C5          9.2490    2.7450   25.0950 C.ar      1 MOL        -0.0267
      6 C6          8.8640    1.5830   25.7580 C.ar      1 MOL        -0.0694
      7 C7          8.2280   -0.7940   25.6410 C.cat     1 MOL         0.2289
      8 N1          7.5210   -0.7780   26.7490 N.pl3     1 MOL        -0.2733
      9 N2          8.6130   -1.9210   25.1090 N.pl3     1 MOL        -0.2733
     10 N3          9.7930    4.0110   23.4250 N.pl3     1 MOL        -0.2761
     11 C9          9.5550    3.9940   25.5940 C.2       1 MOL        -0.0575
     12 C8          9.8640    4.7960   24.4820 C.2       1 MOL         0.0607
     13 C1'        10.2150    6.1850   24.4680 C.ar      1 MOL         0.0382
     14 C2'        10.0220    6.9650   25.6260 C.ar      1 MOL        -0.0590
     15 C3'        10.3310    8.3320   25.6420 C.ar      1 MOL        -0.0712
     16 C4'        10.8230    8.9520   24.5110 C.ar      1 MOL        -0.0615
     17 C5'        11.0270    8.2220   23.3300 C.ar      1 MOL         0.0146
     18 C6'        10.7080    6.8370   23.3020 C.ar      1 MOL         0.1121
     19 O6'        10.8780    6.1340   22.1250 O.3       1 MOL        -0.3266
     20 C1'        11.6130    8.9280   22.2610 C.ar      1 MOL        -0.0215
     21 C2'        12.7720    8.4350   21.6570 C.ar      1 MOL        -0.0570
     22 C3'        13.4070    9.1420   20.6540 C.ar      1 MOL        -0.0632
     23 C4'        12.8960   10.3610   20.2340 C.ar      1 MOL        -0.0635
     24 C5'        11.7400   10.8600   20.8060 C.ar      1 MOL        -0.0632
     25 C6'        11.0980   10.1470   21.8220 C.ar      1 MOL        -0.0570
     26 CL2         8.3610   -0.8350   22.4740 Cl        1 MOL        -0.0800
     27 H1          9.3239    1.7180   21.8949 H         1 MOL         0.0545
     28 H2          8.7845    1.5659   26.8390 H         1 MOL         0.0531
     29 H3          7.2696   -1.6629   27.2123 H         1 MOL         0.3180
     30 H4          7.2184    0.1194   27.1539 H         1 MOL         0.3180
     31 H5          9.1666   -1.9179   24.2404 H         1 MOL         0.3180
     32 H6          8.3634   -2.8140   25.5575 H         1 MOL         0.3180
     33 H7         10.0485    4.3001   22.4700 H         1 MOL         0.2230
     34 H8          9.5568    4.2977   26.6398 H         1 MOL         0.0296
     35 H9          9.6270    6.4987   26.5213 H         1 MOL         0.0593
     36 H10        10.1826    8.9066   26.5491 H         1 MOL         0.0530
     37 H11        11.0535   10.0109   24.5353 H         1 MOL         0.0593
     38 H12        11.2119    6.7179   21.4541 H         1 MOL         0.2521
     39 H13        13.1792    7.4837   21.9799 H         1 MOL         0.0606
     40 H14        14.3048    8.7438   20.1953 H         1 MOL         0.0613
     41 H15        13.4027   10.9226   19.4575 H         1 MOL         0.0603
     42 H16        11.3316   11.8048   20.4660 H         1 MOL         0.0613
     43 H17        10.1948   10.5438   22.2712 H         1 MOL         0.0606
@<TRIPOS>BOND
     1    7    1 1  
     2    1    6 ar 
     3    1    2 ar 
     4    2    3 ar 
     5    2   26 1  
     6    3    4 ar 
     7    4   10 1  
     8    4    5 ar 
     9    5   11 1  
    10    6    5 ar 
    11   11   12 2  
    12   12   13 1  
    13   10   12 1  
    14   13   18 ar 
    15   13   14 ar 
    16   18   19 1  
    17   18   17 ar 
    18   17   20 1  
    19   17   16 ar 
    20   16   15 ar 
    21   20   25 ar 
    22   20   21 ar 
    23   21   22 ar 
    24   22   23 ar 
    25   23   24 ar 
    26   25   24 ar 
    27    7    9 ar 
    28    7    8 ar 
    29   14   15 ar 
    30    3   27 1  
    31    6   28 1  
    32    8   29 1  
    33    8   30 1  
    34    9   31 1  
    35    9   32 1  
    36   10   33 1  
    37   11   34 1  
    38   14   35 1  
    39   15   36 1  
    40   16   37 1  
    41   19   38 1  
    42   21   39 1  
    43   22   40 1  
    44   23   41 1  
    45   24   42 1  
    46   25   43 1  
@<TRIPOS>SUBSTRUCTURE
     1 MOL         1

