### 
### Created by X-TOOL on Fri Sep 26 17:34:20 2014
### 

@<TRIPOS>MOLECULE
1gj8_ligand
   45    47     1     0     0
SMALL
GAST_HUCK


@<TRIPOS>ATOM
      1 C1          8.7020    1.9060   24.7210 C.ar      1 MOL         0.0466
      2 C2          9.5020    1.7010   23.5460 C.ar      1 MOL         0.1219
      3 C3         10.0890    2.7460   22.8090 C.ar      1 MOL        -0.0294
      4 C4          9.8940    3.9850   23.3270 C.ar      1 MOL         0.0272
      5 C5          9.1430    4.2220   24.4360 C.ar      1 MOL         0.0772
      6 C6          8.5610    3.2360   25.1760 C.ar      1 MOL        -0.0355
      7 C7          8.0960    0.8660   25.4440 C.cat     1 MOL         0.2308
      8 N1          7.6220    1.1290   26.6300 N.pl3     1 MOL        -0.2733
      9 N2          7.9690   -0.3410   24.9550 N.pl3     1 MOL        -0.2733
     10 N3         10.2800    5.1330   22.9050 N.2       1 MOL        -0.3125
     11 N4          9.0730    5.4870   24.7590 N.pl3     1 MOL        -0.2531
     12 C8          9.7890    5.9750   23.7630 C.2       1 MOL         0.1325
     13 C1'        10.0240    7.3300   23.6610 C.ar      1 MOL         0.0567
     14 C2'         9.6070    8.1950   24.6730 C.ar      1 MOL        -0.0628
     15 C3'         9.8420    9.5420   24.5870 C.ar      1 MOL        -0.0761
     16 C4'        10.4300   10.0580   23.4430 C.ar      1 MOL        -0.0368
     17 C5'        10.8560    9.2200   22.4070 C.ar      1 MOL         0.1262
     18 C6'        10.6190    7.8690   22.5090 C.ar      1 MOL         0.1381
     19 O6'        11.0360    7.0530   21.4740 O.3       1 MOL        -0.3301
     20 O5'        11.4570    9.7000   21.2550 O.3       1 MOL        -0.3204
     21 C10        12.2690   10.8580   21.4780 C.3       1 MOL         0.0702
     22 C20        12.8550   11.3540   20.1570 C.3       1 MOL        -0.0193
     23 C30        14.1520   10.6070   19.8240 C.3       1 MOL        -0.0602
     24 C40        11.8260   11.2150   19.0470 C.3       1 MOL        -0.0602
     25 F2          9.7230    0.4740   23.0740 F         1 MOL        -0.1932
     26 H1         10.6526    2.5748   21.8990 H         1 MOL         0.0526
     27 H2          8.0098    3.4643   26.0811 H         1 MOL         0.0538
     28 H3          7.1725    0.3844   27.1817 H         1 MOL         0.3180
     29 H4          7.6971    2.0814   27.0151 H         1 MOL         0.3180
     30 H5          8.3399   -0.5592   24.0192 H         1 MOL         0.3180
     31 H6          7.4981   -1.0729   25.5059 H         1 MOL         0.3180
     32 H7          8.6044    5.9572   25.5466 H         1 MOL         0.2288
     33 H8          9.0904    7.7962   25.5385 H         1 MOL         0.0540
     34 H9          9.5706   10.1981   25.4061 H         1 MOL         0.0511
     35 H10        10.5621   11.1298   23.3493 H         1 MOL         0.0544
     36 H11        10.8112    6.1516   21.6726 H         1 MOL         0.2481
     37 H12        13.0885   10.6003   22.1650 H         1 MOL         0.0611
     38 H13        11.6533   11.6532   21.9236 H         1 MOL         0.0611
     39 H14        13.0973   12.4214   20.2663 H         1 MOL         0.0321
     40 H15        14.5553   10.9796   18.8709 H         1 MOL         0.0233
     41 H16        13.9434    9.5304   19.7379 H         1 MOL         0.0233
     42 H17        14.8878   10.7751   20.6242 H         1 MOL         0.0233
     43 H18        10.9129   11.7629   19.3228 H         1 MOL         0.0233
     44 H19        11.5855   10.1516   18.9010 H         1 MOL         0.0233
     45 H20        12.2348   11.6299   18.1139 H         1 MOL         0.0233
@<TRIPOS>BOND
     1    2   25 1  
     2    1    7 1  
     3    1    6 ar 
     4    1    2 ar 
     5    2    3 ar 
     6    3    4 ar 
     7    4   10 1  
     8    4    5 ar 
     9    5   11 1  
    10    6    5 ar 
    11   11   12 1  
    12   12   13 1  
    13   10   12 2  
    14   13   18 ar 
    15   13   14 ar 
    16   14   15 ar 
    17   15   16 ar 
    18   16   17 ar 
    19   17   20 1  
    20   18   17 ar 
    21   18   19 1  
    22   20   21 1  
    23   21   22 1  
    24   22   24 1  
    25   22   23 1  
    26    7    9 ar 
    27    7    8 ar 
    28    3   26 1  
    29    6   27 1  
    30    8   28 1  
    31    8   29 1  
    32    9   30 1  
    33    9   31 1  
    34   11   32 1  
    35   14   33 1  
    36   15   34 1  
    37   16   35 1  
    38   19   36 1  
    39   21   37 1  
    40   21   38 1  
    41   22   39 1  
    42   23   40 1  
    43   23   41 1  
    44   23   42 1  
    45   24   43 1  
    46   24   44 1  
    47   24   45 1  
@<TRIPOS>SUBSTRUCTURE
     1 MOL         1

