### 
### Created by X-TOOL on Fri Sep 26 17:34:20 2014
### 

@<TRIPOS>MOLECULE
1gja_ligand
   33    34     1     0     0
SMALL
GAST_HUCK


@<TRIPOS>ATOM
      1 C1          8.6090    0.5270   25.3730 C.ar      1 MOL         0.0101
      2 C2          9.4400    0.6780   24.2510 C.ar      1 MOL        -0.0703
      3 C3          9.8880    1.9150   23.8390 C.ar      1 MOL        -0.0413
      4 C4          9.5050    3.0280   24.5500 C.ar      1 MOL         0.0657
      5 C5          8.6900    2.9550   25.6560 C.ar      1 MOL        -0.0413
      6 C6          8.2410    1.7030   26.0610 C.ar      1 MOL        -0.0703
      7 C7          8.1680   -0.7360   25.7880 C.cat     1 MOL         0.2271
      8 N1          7.5160   -0.8470   26.9160 N.pl3     1 MOL        -0.2738
      9 N2          8.4100   -1.7900   25.0590 N.pl3     1 MOL        -0.2738
     10 N3         10.0240    4.1440   24.0940 N.am      1 MOL        -0.2350
     11 C8          9.5920    5.3670   24.3100 C.2       1 MOL         0.2268
     12 O8          8.6100    5.6680   24.9770 O.2       1 MOL        -0.3792
     13 C9         10.3990    6.3420   23.6500 C.ar      1 MOL         0.0843
     14 C10         9.9210    7.6630   23.6150 C.ar      1 MOL        -0.0498
     15 C11        10.6100    8.6750   22.9700 C.ar      1 MOL        -0.0671
     16 C12        11.8340    8.4290   22.3750 C.ar      1 MOL        -0.0661
     17 C13        12.3510    7.1460   22.3840 C.ar      1 MOL        -0.0270
     18 C14        11.6740    6.1070   23.0230 C.ar      1 MOL         0.1097
     19 O14        12.3300    4.8830   22.9660 O.3       1 MOL        -0.3276
     20 H1          9.7375   -0.2027   23.6933 H         1 MOL         0.0577
     21 H2         10.5302    2.0085   22.9707 H         1 MOL         0.0502
     22 H3          8.4054    3.8500   26.1974 H         1 MOL         0.0502
     23 H4          7.5924    1.6283   26.9264 H         1 MOL         0.0577
     24 H5          7.1866   -1.7704   27.2318 H         1 MOL         0.3179
     25 H6          7.3318   -0.0110   27.4888 H         1 MOL         0.3179
     26 H7          8.9241   -1.6954   24.1715 H         1 MOL         0.3179
     27 H8          8.0870   -2.7170   25.3707 H         1 MOL         0.3179
     28 H9         10.8373    4.0543   23.5191 H         1 MOL         0.2249
     29 H10         8.9843    7.8963   24.1081 H         1 MOL         0.0640
     30 H11        10.1856    9.6717   22.9307 H         1 MOL         0.0536
     31 H12        12.3844    9.2359   21.9049 H         1 MOL         0.0625
     32 H13        13.2940    6.9454   21.8883 H         1 MOL         0.0555
     33 H14        11.8136    4.2268   23.4191 H         1 MOL         0.2509
@<TRIPOS>BOND
     1    7    1 1  
     2    1    6 ar 
     3    1    2 ar 
     4    2    3 ar 
     5    3    4 ar 
     6    4   10 1  
     7    4    5 ar 
     8    6    5 ar 
     9   10   11 am 
    10   11   13 1  
    11   11   12 2  
    12   13   18 ar 
    13   13   14 ar 
    14   14   15 ar 
    15   15   16 ar 
    16   16   17 ar 
    17   18   17 ar 
    18   18   19 1  
    19    7    9 ar 
    20    7    8 ar 
    21    2   20 1  
    22    3   21 1  
    23    5   22 1  
    24    6   23 1  
    25    8   24 1  
    26    8   25 1  
    27    9   26 1  
    28    9   27 1  
    29   10   28 1  
    30   14   29 1  
    31   15   30 1  
    32   16   31 1  
    33   17   32 1  
    34   19   33 1  
@<TRIPOS>SUBSTRUCTURE
     1 MOL         1

