### 
### Created by X-TOOL on Mon Sep 10 21:12:49 2018
### 

@<TRIPOS>MOLECULE
1gjb_ligand
   42    45     1     0     0
SMALL
GAST_HUCK


@<TRIPOS>ATOM
      1 C1          8.5770    1.4330   24.7450 C.ar      1 130         0.0127
      2 C2          9.3890    1.2760   23.5690 C.ar      1 130        -0.0715
      3 C3          9.9820    2.3660   22.9110 C.ar      1 130        -0.0621
      4 C4          9.7350    3.5850   23.4590 C.ar      1 130         0.0294
      5 C5          8.9740    3.7750   24.5540 C.ar      1 130         0.0805
      6 C6          8.3750    2.7410   25.2340 C.ar      1 130        -0.0348
      7 C7          8.0160    0.3180   25.3880 C.cat     1 130         0.2301
      8 N1          7.6460    0.3810   26.6530 N.pl3     1 130        -0.2729
      9 N2          7.8750   -0.7900   24.7110 N.pl3     1 130        -0.2729
     10 N3         10.1270    4.7610   23.0840 N.2       1 130        -0.3106
     11 N4          8.8650    5.0490   24.9010 N.pl3     1 130        -0.2511
     12 C8          9.6080    5.5890   23.9410 C.2       1 130         0.1366
     13 C1'         9.8450    6.9610   23.8680 C.ar      1 130         0.0671
     14 C2'         9.4350    7.8020   24.9020 C.ar      1 130        -0.0510
     15 C3'         9.6540    9.1710   24.8690 C.ar      1 130        -0.0663
     16 C4'        10.2920    9.7260   23.7760 C.ar      1 130        -0.0572
     17 C5'        10.7260    8.9440   22.7130 C.ar      1 130         0.0195
     18 C6'        10.4980    7.5650   22.7660 C.ar      1 130         0.1203
     19 O6'        10.9450    6.8030   21.7010 O.3       1 130        -0.3234
     20 C1'        11.3660    9.5550   21.6460 C.ar      1 130        -0.0204
     21 C2'        12.5390    9.0410   21.0810 C.ar      1 130        -0.0568
     22 C3'        13.1740    9.6850   20.0270 C.ar      1 130        -0.0632
     23 C4'        12.6500   10.8610   19.5070 C.ar      1 130        -0.0634
     24 C5'        11.4860   11.3860   20.0500 C.ar      1 130        -0.0632
     25 C6'        10.8590   10.7380   21.1040 C.ar      1 130        -0.0568
     26 H1          9.5496    0.2789   23.1753 H         1 130         0.0522
     27 H2         10.5954    2.2433   22.0257 H         1 130         0.0548
     28 H3          7.7693    2.9241   26.1142 H         1 130         0.0544
     29 H4          7.2359   -0.4452   27.1114 H         1 130         0.3180
     30 H5          7.7673    1.2564   27.1821 H         1 130         0.3180
     31 H6          8.1663   -0.8310   23.7239 H         1 130         0.3180
     32 H7          7.4725   -1.6228   25.1642 H         1 130         0.3180
     33 H8          8.3566    5.4890   25.6813 H         1 130         0.2296
     34 H9          8.9290    7.3720   25.7588 H         1 130         0.0636
     35 H10         9.3285    9.7984   25.6909 H         1 130         0.0542
     36 H11        10.4577   10.7969   23.7474 H         1 130         0.0629
     37 H12        10.7319    5.8901   21.8548 H         1 130         0.2537
     38 H13        12.9599    8.1225   21.4737 H         1 130         0.0607
     39 H14        14.0827    9.2677   19.6085 H         1 130         0.0613
     40 H15        13.1456   11.3642   18.6846 H         1 130         0.0603
     41 H16        11.0667   12.3024   19.6506 H         1 130         0.0613
     42 H17         9.9510   11.1612   21.5181 H         1 130         0.0607
@<TRIPOS>BOND
     1    7    1 1  
     2    1    6 ar 
     3    1    2 ar 
     4    2    3 ar 
     5    3    4 ar 
     6    4   10 1  
     7    4    5 ar 
     8    5   11 1  
     9    6    5 ar 
    10   11   12 1  
    11   12   13 1  
    12   10   12 2  
    13   13   18 ar 
    14   13   14 ar 
    15   14   15 ar 
    16   15   16 ar 
    17   16   17 ar 
    18   17   20 1  
    19   18   17 ar 
    20   18   19 1  
    21   20   25 ar 
    22   20   21 ar 
    23   21   22 ar 
    24   22   23 ar 
    25   23   24 ar 
    26   25   24 ar 
    27    7    9 ar 
    28    7    8 ar 
    29    2   26 1  
    30    3   27 1  
    31    6   28 1  
    32    8   29 1  
    33    8   30 1  
    34    9   31 1  
    35    9   32 1  
    36   11   33 1  
    37   14   34 1  
    38   15   35 1  
    39   16   36 1  
    40   19   37 1  
    41   21   38 1  
    42   22   39 1  
    43   23   40 1  
    44   24   41 1  
    45   25   42 1  
@<TRIPOS>SUBSTRUCTURE
     1 130         1

