### 
### Created by X-TOOL on Mon Sep 10 21:12:49 2018
### 

@<TRIPOS>MOLECULE
1gjc_ligand
   42    45     1     0     0
SMALL
GAST_HUCK


@<TRIPOS>ATOM
      1 C1          8.7610    1.3670   24.6990 C.ar      1 130         0.0127
      2 C2          9.5260    1.2400   23.5100 C.ar      1 130        -0.0715
      3 C3         10.1020    2.3400   22.8490 C.ar      1 130        -0.0621
      4 C4          9.8850    3.5570   23.4180 C.ar      1 130         0.0294
      5 C5          9.1700    3.7280   24.5370 C.ar      1 130         0.0805
      6 C6          8.5860    2.6760   25.2210 C.ar      1 130        -0.0348
      7 C7          8.2110    0.2360   25.3310 C.cat     1 130         0.2301
      8 N1          7.7860    0.3080   26.5690 N.pl3     1 130        -0.2729
      9 N2          8.1250   -0.8970   24.6800 N.pl3     1 130        -0.2729
     10 N3         10.2680    4.7330   23.0440 N.2       1 130        -0.3106
     11 N4          9.0780    5.0000   24.9000 N.pl3     1 130        -0.2511
     12 C8          9.7860    5.5600   23.9200 C.2       1 130         0.1366
     13 C1'        10.0470    6.9550   23.8570 C.ar      1 130         0.0671
     14 C2'         9.7040    7.8070   24.9150 C.ar      1 130        -0.0510
     15 C3'         9.9550    9.1710   24.8730 C.ar      1 130        -0.0663
     16 C4'        10.5550    9.7220   23.7660 C.ar      1 130        -0.0572
     17 C5'        10.9270    8.9440   22.6670 C.ar      1 130         0.0195
     18 C6'        10.6660    7.5610   22.7300 C.ar      1 130         0.1203
     19 O6'        11.0360    6.7970   21.6420 O.3       1 130        -0.3234
     20 C1'        11.5400    9.5710   21.5850 C.ar      1 130        -0.0204
     21 C2'        12.7980    9.1700   21.1430 C.ar      1 130        -0.0568
     22 C3'        13.4460    9.8080   20.0970 C.ar      1 130        -0.0632
     23 C4'        12.8360   10.8760   19.4600 C.ar      1 130        -0.0634
     24 C5'        11.5800   11.2970   19.8720 C.ar      1 130        -0.0632
     25 C6'        10.9360   10.6510   20.9230 C.ar      1 130        -0.0568
     26 H1          9.6730    0.2505   23.0925 H         1 130         0.0522
     27 H2         10.6835    2.2252   21.9414 H         1 130         0.0548
     28 H3          8.0136    2.8458   26.1258 H         1 130         0.0544
     29 H4          7.3847   -0.5238   27.0249 H         1 130         0.3180
     30 H5          7.8534    1.1964   27.0858 H         1 130         0.3180
     31 H6          8.4576   -0.9585   23.7071 H         1 130         0.3180
     32 H7          7.7248   -1.7267   25.1408 H         1 130         0.3180
     33 H8          8.5992    5.4296   25.7044 H         1 130         0.2296
     34 H9          9.2277    7.3875   25.7938 H         1 130         0.0636
     35 H10         9.6786    9.8004   25.7111 H         1 130         0.0542
     36 H11        10.7447   10.7891   23.7452 H         1 130         0.0629
     37 H12        10.8098    5.8885   21.8028 H         1 130         0.2537
     38 H13        13.2851    8.3339   21.6315 H         1 130         0.0607
     39 H14        14.4264    9.4724   19.7787 H         1 130         0.0613
     40 H15        13.3381   11.3809   18.6427 H         1 130         0.0603
     41 H16        11.0991   12.1312   19.3741 H         1 130         0.0613
     42 H17         9.9536   10.9869   21.2348 H         1 130         0.0607
@<TRIPOS>BOND
     1    7    1 1  
     2    1    6 ar 
     3    1    2 ar 
     4    2    3 ar 
     5    3    4 ar 
     6    4   10 1  
     7    4    5 ar 
     8    5   11 1  
     9    6    5 ar 
    10   11   12 1  
    11   12   13 1  
    12   10   12 2  
    13   13   18 ar 
    14   13   14 ar 
    15   14   15 ar 
    16   15   16 ar 
    17   16   17 ar 
    18   17   20 1  
    19   18   17 ar 
    20   18   19 1  
    21   20   25 ar 
    22   20   21 ar 
    23   21   22 ar 
    24   22   23 ar 
    25   23   24 ar 
    26   25   24 ar 
    27    7    9 ar 
    28    7    8 ar 
    29    2   26 1  
    30    3   27 1  
    31    6   28 1  
    32    8   29 1  
    33    8   30 1  
    34    9   31 1  
    35    9   32 1  
    36   11   33 1  
    37   14   34 1  
    38   15   35 1  
    39   16   36 1  
    40   19   37 1  
    41   21   38 1  
    42   22   39 1  
    43   23   40 1  
    44   24   41 1  
    45   25   42 1  
@<TRIPOS>SUBSTRUCTURE
     1 130         1

