### 
### Created by X-TOOL on Fri Sep 26 17:34:20 2014
### 

@<TRIPOS>MOLECULE
1gjd_ligand
   36    37     1     0     0
SMALL
GAST_HUCK


@<TRIPOS>ATOM
      1 C1          8.4240    0.4770   25.4380 C.ar      1 MOL         0.0240
      2 C2          8.6750    0.7880   24.0770 C.ar      1 MOL         0.0322
      3 C3          9.2100    2.0250   23.6960 C.ar      1 MOL        -0.0275
      4 C4          9.4780    2.9400   24.6910 C.ar      1 MOL         0.0661
      5 C5          9.2400    2.6860   26.0310 C.ar      1 MOL        -0.0411
      6 C6          8.7190    1.4630   26.3900 C.ar      1 MOL        -0.0698
      7 C7          7.9660   -0.7630   25.8710 C.cat     1 MOL         0.2276
      8 N1          7.1920   -0.8390   26.9230 N.pl3     1 MOL        -0.2737
      9 N2          8.3340   -1.8370   25.2320 N.pl3     1 MOL        -0.2737
     10 N3         10.0210    4.0990   24.4140 N.am      1 MOL        -0.2350
     11 C8          9.5730    5.2520   24.8630 C.2       1 MOL         0.2259
     12 O8          8.5730    5.3300   25.5720 O.2       1 MOL        -0.3792
     13 C9         10.3470    6.3850   24.4390 C.ar      1 MOL         0.0808
     14 C10        10.0010    7.6750   24.9160 C.ar      1 MOL        -0.0459
     15 C11        10.7100    8.8310   24.5700 C.ar      1 MOL        -0.0482
     16 C21        10.3610   10.2260   25.0940 C.3       1 MOL        -0.0347
     17 C12        11.7910    8.7310   23.7280 C.ar      1 MOL        -0.0533
     18 C13        12.1880    7.5100   23.2170 C.ar      1 MOL         0.0373
     19 C14        11.4910    6.3340   23.5630 C.ar      1 MOL         0.1141
     20 O14        11.9890    5.1500   23.0430 O.3       1 MOL        -0.3298
     21 CL2         8.2710   -0.3910   22.7950 Cl        1 MOL        -0.0748
     22 I13        13.7640    7.5300   21.9140 I         1 MOL        -0.0571
     23 H1          9.4064    2.2546   22.6550 H         1 MOL         0.0507
     24 H2          9.4595    3.4353   26.7829 H         1 MOL         0.0504
     25 H3          8.5318    1.2569   27.4376 H         1 MOL         0.0577
     26 H4          6.8510   -1.7556   27.2464 H         1 MOL         0.3179
     27 H5          6.9236    0.0177   27.4279 H         1 MOL         0.3179
     28 H6          8.9437   -1.7609   24.4053 H         1 MOL         0.3179
     29 H7          8.0152   -2.7622   25.5535 H         1 MOL         0.3179
     30 H8         10.8279    4.1085   23.8234 H         1 MOL         0.2249
     31 H9          9.1485    7.7700   25.5788 H         1 MOL         0.0600
     32 H10        11.0647   10.9612   24.6764 H         1 MOL         0.0371
     33 H11        10.4314   10.2336   26.1917 H         1 MOL         0.0371
     34 H12         9.3362   10.4859   24.7905 H         1 MOL         0.0371
     35 H13        12.3419    9.6252   23.4599 H         1 MOL         0.0596
     36 H14        11.4493    4.4250   23.3359 H         1 MOL         0.2498
@<TRIPOS>BOND
     1    7    1 1  
     2    1    6 ar 
     3    1    2 ar 
     4    2    3 ar 
     5    3    4 ar 
     6    4   10 1  
     7    4    5 ar 
     8    6    5 ar 
     9   10   11 am 
    10   11   13 1  
    11   11   12 2  
    12   13   19 ar 
    13   13   14 ar 
    14   14   15 ar 
    15   15   17 ar 
    16   15   16 1  
    17   17   18 ar 
    18   19   18 ar 
    19   19   20 1  
    20    7    9 ar 
    21    7    8 ar 
    22    2   21 1  
    23   18   22 1  
    24    3   23 1  
    25    5   24 1  
    26    6   25 1  
    27    8   26 1  
    28    8   27 1  
    29    9   28 1  
    30    9   29 1  
    31   10   30 1  
    32   14   31 1  
    33   16   32 1  
    34   16   33 1  
    35   16   34 1  
    36   17   35 1  
    37   20   36 1  
@<TRIPOS>SUBSTRUCTURE
     1 MOL         1

