### 
### Created by X-TOOL on Mon Sep 10 21:12:49 2018
### 

@<TRIPOS>MOLECULE
1gni_ligand
   53    52     1     0     0
SMALL
GAST_HUCK


@<TRIPOS>ATOM
      1 C1         29.8480   12.4910   35.5290 C.2       1 OLA         0.0348
      2 O1         29.0440   13.4120   35.8070 O.co2     1 OLA        -0.5690
      3 O2         29.4660   11.3690   35.1310 O.co2     1 OLA        -0.5690
      4 C2         31.3590   12.7330   35.6690 C.3       1 OLA         0.0002
      5 C3         31.6740   13.6900   36.8330 C.3       1 OLA        -0.0414
      6 C4         33.1970   13.8230   36.8300 C.3       1 OLA        -0.0515
      7 C5         33.6470   15.2850   36.8820 C.3       1 OLA        -0.0528
      8 C6         35.1420   15.4200   36.5820 C.3       1 OLA        -0.0515
      9 C7         35.4050   15.8770   35.1430 C.3       1 OLA        -0.0464
     10 C8         36.6180   15.1890   34.5120 C.3       1 OLA        -0.0365
     11 C9         37.1540   15.9590   33.2960 C.2       1 OLA        -0.0987
     12 C10        37.1270   15.5550   31.9990 C.2       1 OLA        -0.0987
     13 C11        36.5580   14.2480   31.4630 C.3       1 OLA        -0.0365
     14 C12        35.6750   14.4660   30.2420 C.3       1 OLA        -0.0464
     15 C13        34.4940   13.4960   30.2550 C.3       1 OLA        -0.0515
     16 C14        33.6810   13.5500   28.9680 C.3       1 OLA        -0.0529
     17 C15        32.5900   12.4970   28.9760 C.3       1 OLA        -0.0531
     18 C16        32.5080   11.8090   27.6250 C.3       1 OLA        -0.0533
     19 C17        33.1240   10.4130   27.6620 C.3       1 OLA        -0.0559
     20 C18        32.0470    9.3460   27.6640 C.3       1 OLA        -0.0653
     21 H1         31.7386   13.1710   34.7341 H         1 OLA         0.0430
     22 H2         31.8592   11.7707   35.8527 H         1 OLA         0.0430
     23 H3         31.3241   13.2681   37.7867 H         1 OLA         0.0283
     24 H4         31.1995   14.6687   36.6689 H         1 OLA         0.0283
     25 H5         33.5915   13.3629   35.9121 H         1 OLA         0.0266
     26 H6         33.6009   13.2961   37.7071 H         1 OLA         0.0266
     27 H7         33.4459   15.6859   37.8864 H         1 OLA         0.0265
     28 H8         33.0790   15.8611   36.1367 H         1 OLA         0.0265
     29 H9         35.6240   14.4435   36.7371 H         1 OLA         0.0267
     30 H10        35.5767   16.1574   37.2728 H         1 OLA         0.0267
     31 H11        35.5797   16.9630   35.1460 H         1 OLA         0.0285
     32 H12        34.5170   15.6501   34.5348 H         1 OLA         0.0285
     33 H13        36.3248   14.1787   34.1905 H         1 OLA         0.0388
     34 H14        37.4161   15.1168   35.2655 H         1 OLA         0.0388
     35 H15        37.6030   16.9311   33.4942 H         1 OLA         0.0450
     36 H16        37.5569   16.2367   31.2666 H         1 OLA         0.0450
     37 H17        35.9593   13.7713   32.2531 H         1 OLA         0.0388
     38 H18        37.3913   13.5861   31.1845 H         1 OLA         0.0388
     39 H19        36.2693   14.3004   29.3313 H         1 OLA         0.0285
     40 H20        35.2954   15.4984   30.2495 H         1 OLA         0.0285
     41 H21        33.8363   13.7521   31.0987 H         1 OLA         0.0267
     42 H22        34.8784   12.4738   30.3868 H         1 OLA         0.0267
     43 H23        34.3484   13.3713   28.1120 H         1 OLA         0.0265
     44 H24        33.2213   14.5448   28.8732 H         1 OLA         0.0265
     45 H25        31.6251   12.9765   29.1976 H         1 OLA         0.0265
     46 H26        32.8141   11.7488   29.7506 H         1 OLA         0.0265
     47 H27        33.0467   12.4163   26.8827 H         1 OLA         0.0265
     48 H28        31.4511   11.7242   27.3321 H         1 OLA         0.0265
     49 H29        33.7326   10.3120   28.5727 H         1 OLA         0.0263
     50 H30        33.7631   10.2778   26.7770 H         1 OLA         0.0263
     51 H31        32.5162    8.3515   27.6909 H         1 OLA         0.0230
     52 H32        31.4369    9.4391   26.7534 H         1 OLA         0.0230
     53 H33        31.4064    9.4732   28.5491 H         1 OLA         0.0230
@<TRIPOS>BOND
     1    1    2 ar 
     2    1    3 ar 
     3    1    4 1  
     4    4    5 1  
     5    5    6 1  
     6    6    7 1  
     7    7    8 1  
     8    8    9 1  
     9    9   10 1  
    10   10   11 1  
    11   11   12 2  
    12   12   13 1  
    13   13   14 1  
    14   14   15 1  
    15   15   16 1  
    16   16   17 1  
    17   17   18 1  
    18   18   19 1  
    19   19   20 1  
    20    4   21 1  
    21    4   22 1  
    22    5   23 1  
    23    5   24 1  
    24    6   25 1  
    25    6   26 1  
    26    7   27 1  
    27    7   28 1  
    28    8   29 1  
    29    8   30 1  
    30    9   31 1  
    31    9   32 1  
    32   10   33 1  
    33   10   34 1  
    34   11   35 1  
    35   12   36 1  
    36   13   37 1  
    37   13   38 1  
    38   14   39 1  
    39   14   40 1  
    40   15   41 1  
    41   15   42 1  
    42   16   43 1  
    43   16   44 1  
    44   17   45 1  
    45   17   46 1  
    46   18   47 1  
    47   18   48 1  
    48   19   49 1  
    49   19   50 1  
    50   20   51 1  
    51   20   52 1  
    52   20   53 1  
@<TRIPOS>SUBSTRUCTURE
     1 OLA         1

