### 
### Created by X-TOOL on Mon Sep 10 21:12:49 2018
### 

@<TRIPOS>MOLECULE
1gnj_ligand
   53    52     1     0     0
SMALL
GAST_HUCK


@<TRIPOS>ATOM
      1 C1         29.3850   13.4330   35.8230 C.2       1 ACD         0.0349
      2 C2         30.7830   12.9360   35.6010 C.3       1 ACD         0.0018
      3 C3         31.7120   13.2650   36.7510 C.3       1 ACD        -0.0347
      4 C4         32.8490   14.1460   36.2710 C.3       1 ACD        -0.0345
      5 C5         33.2250   15.1840   37.2250 C.2       1 ACD        -0.0966
      6 C6         34.1980   16.1520   36.9210 C.2       1 ACD        -0.0908
      7 C7         34.8990   16.1940   35.6370 C.3       1 ACD        -0.0199
      8 C8         36.3390   16.3840   35.7660 C.2       1 ACD        -0.0890
      9 C9         37.2150   16.3730   34.6630 C.2       1 ACD        -0.0889
     10 C10        36.7660   16.1710   33.2860 C.3       1 ACD        -0.0195
     11 C11        37.4660   15.0930   32.6080 C.2       1 ACD        -0.0889
     12 C12        36.8890   14.3170   31.5850 C.2       1 ACD        -0.0890
     13 C13        35.5300   14.4960   31.0840 C.3       1 ACD        -0.0199
     14 C14        35.4450   14.2630   29.6390 C.2       1 ACD        -0.0908
     15 C15        34.3720   13.5950   29.0040 C.2       1 ACD        -0.0967
     16 C16        33.2210   13.0630   29.7210 C.3       1 ACD        -0.0360
     17 C17        32.1920   12.4210   28.8000 C.3       1 ACD        -0.0463
     18 C18        31.7380   11.0670   29.3220 C.3       1 ACD        -0.0517
     19 C19        30.5460   11.1960   30.2630 C.3       1 ACD        -0.0558
     20 C20        30.5450   10.0790   31.2750 C.3       1 ACD        -0.0653
     21 O1         28.5270   12.6670   36.3370 O.co2     1 ACD        -0.5690
     22 O2         29.1260   14.6170   35.4840 O.co2     1 ACD        -0.5690
     23 H1         31.1795   13.3990   34.6854 H         1 ACD         0.0432
     24 H2         30.7520   11.8436   35.4757 H         1 ACD         0.0432
     25 H3         32.1244   12.3322   37.1631 H         1 ACD         0.0303
     26 H4         31.1482   13.7939   37.5335 H         1 ACD         0.0303
     27 H5         32.5414   14.6307   35.3327 H         1 ACD         0.0391
     28 H6         33.7271   13.5102   36.0846 H         1 ACD         0.0391
     29 H7         32.7386   15.2095   38.1990 H         1 ACD         0.0458
     30 H8         34.4403   16.9021   37.6724 H         1 ACD         0.0463
     31 H9         34.4900   17.0253   35.0441 H         1 ACD         0.0513
     32 H10        34.7189   15.2449   35.1108 H         1 ACD         0.0513
     33 H11        36.7559   16.5415   36.7597 H         1 ACD         0.0471
     34 H12        38.2784   16.5222   34.8445 H         1 ACD         0.0471
     35 H13        36.9306   17.1024   32.7244 H         1 ACD         0.0515
     36 H14        35.6915   15.9360   33.2995 H         1 ACD         0.0515
     37 H15        38.4901   14.8741   32.9068 H         1 ACD         0.0471
     38 H16        37.4966   13.5315   31.1381 H         1 ACD         0.0471
     39 H17        35.2046   15.5247   31.2980 H         1 ACD         0.0513
     40 H18        34.8650   13.7866   31.5983 H         1 ACD         0.0513
     41 H19        36.2597   14.6274   29.0149 H         1 ACD         0.0463
     42 H20        34.4083   13.4720   27.9226 H         1 ACD         0.0458
     43 H21        32.7373   13.8859   30.2676 H         1 ACD         0.0390
     44 H22        33.5730   12.3048   30.4360 H         1 ACD         0.0390
     45 H23        32.6391   12.2874   27.8039 H         1 ACD         0.0285
     46 H24        31.3183   13.0849   28.7237 H         1 ACD         0.0285
     47 H25        32.5712   10.5966   29.8647 H         1 ACD         0.0267
     48 H26        31.4519   10.4339   28.4692 H         1 ACD         0.0267
     49 H27        29.6163   11.1532   29.6766 H         1 ACD         0.0263
     50 H28        30.6036   12.1603   30.7892 H         1 ACD         0.0263
     51 H29        29.6783   10.1904   31.9432 H         1 ACD         0.0230
     52 H30        31.4715   10.1192   31.8665 H         1 ACD         0.0230
     53 H31        30.4843    9.1122   30.7539 H         1 ACD         0.0230
@<TRIPOS>BOND
     1    1    2 1  
     2    1   21 ar 
     3    1   22 ar 
     4    2    3 1  
     5    3    4 1  
     6    4    5 1  
     7    5    6 2  
     8    6    7 1  
     9    7    8 1  
    10    8    9 2  
    11    9   10 1  
    12   10   11 1  
    13   11   12 2  
    14   12   13 1  
    15   13   14 1  
    16   14   15 2  
    17   15   16 1  
    18   16   17 1  
    19   17   18 1  
    20   18   19 1  
    21   19   20 1  
    22    2   23 1  
    23    2   24 1  
    24    3   25 1  
    25    3   26 1  
    26    4   27 1  
    27    4   28 1  
    28    5   29 1  
    29    6   30 1  
    30    7   31 1  
    31    7   32 1  
    32    8   33 1  
    33    9   34 1  
    34   10   35 1  
    35   10   36 1  
    36   11   37 1  
    37   12   38 1  
    38   13   39 1  
    39   13   40 1  
    40   14   41 1  
    41   15   42 1  
    42   16   43 1  
    43   16   44 1  
    44   17   45 1  
    45   17   46 1  
    46   18   47 1  
    47   18   48 1  
    48   19   49 1  
    49   19   50 1  
    50   20   51 1  
    51   20   52 1  
    52   20   53 1  
@<TRIPOS>SUBSTRUCTURE
     1 ACD         1

