### 
### Created by X-TOOL on Mon Sep 10 21:12:45 2018
### 

@<TRIPOS>MOLECULE
1gnm_ligand
   95    95     1     0     0
SMALL
GAST_HUCK


@<TRIPOS>ATOM
      1 C1        -10.0700   15.6730   32.1470 C.3       1 U0E         0.0257
      2 C2         -9.9670   15.3250   30.6620 C.2       1 U0E         0.1732
      3 C3        -10.7660   16.0590   28.4260 C.3       1 U0E         0.0682
      4 C4        -12.2860   16.0110   28.1150 C.3       1 U0E        -0.0246
      5 C5        -12.9240   14.7800   28.7960 C.3       1 U0E        -0.0389
      6 C6        -14.4240   15.0320   28.9640 C.3       1 U0E        -0.0501
      7 C7        -15.0720   13.8480   29.6800 C.3       1 U0E        -0.0528
      8 C8        -14.8530   12.5510   28.8960 C.3       1 U0E        -0.0530
      9 C9        -13.3570   12.2850   28.6920 C.3       1 U0E        -0.0528
     10 C10       -12.6840   13.4800   28.0030 C.3       1 U0E        -0.0501
     11 C11       -10.1840   17.2570   27.6460 C.3       1 U0E         0.0804
     12 C12        -8.7240   17.6300   27.9550 C.3       1 U0E        -0.0047
     13 C13        -7.8420   18.3080   26.8940 C.3       1 U0E         0.0535
     14 C14        -6.4850   18.7290   27.4670 C.3       1 U0E        -0.0269
     15 C15        -5.4680   17.5850   27.4920 C.3       1 U0E        -0.0603
     16 C16        -5.8160   19.8490   26.6590 C.3       1 U0E        -0.0603
     17 C17        -7.5900   17.3310   25.7570 C.2       1 U0E         0.1816
     18 C18        -7.6320   17.0130   23.3490 C.3       1 U0E         0.1330
     19 C19        -8.9800   16.7580   22.6770 C.3       1 U0E         0.0045
     20 C20        -8.8790   15.8070   21.4870 C.3       1 U0E         0.0412
     21 C21        -8.6980   16.5470   20.1650 C.2       1 U0E         0.1737
     22 C22        -6.6900   17.7470   22.3960 C.2       1 U0E         0.2040
     23 C23        -4.5510   17.5570   21.2020 C.3       1 U0E         0.1307
     24 C24        -4.4890   16.7130   19.9260 C.2       1 U0E         0.1992
     25 C25        -3.1980   17.4750   21.9150 C.3       1 U0E        -0.0092
     26 C26        -2.2580   18.6290   21.5570 C.3       1 U0E        -0.0156
     27 C27        -1.7630   19.4020   22.7840 C.3       1 U0E         0.0627
     28 C28         0.4810   19.9670   23.6900 C.cat     1 U0E         0.2882
     29 N1        -10.6020   16.1960   29.8880 N.am      1 U0E        -0.2816
     30 N2         -7.8240   17.8130   24.5600 N.am      1 U0E        -0.2652
     31 N3         -8.0500   15.9730   19.1690 N.am      1 U0E        -0.3009
     32 N4         -5.6100   17.0540   22.0870 N.am      1 U0E        -0.2637
     33 N5         -4.1140   17.2520   18.7580 N.am      1 U0E        -0.2990
     34 N6         -0.3720   19.0880   23.1420 N.pl3     1 U0E        -0.2723
     35 N7          0.0750   21.1950   24.0400 N.pl3     1 U0E        -0.2849
     36 N8          1.7740   19.7090   23.9290 N.pl3     1 U0E        -0.2849
     37 O1         -9.3090   14.3330   30.3010 O.2       1 U0E        -0.3974
     38 O2        -10.9450   18.4190   27.8970 O.3       1 U0E        -0.3894
     39 O3         -7.2050   16.1780   25.9830 O.2       1 U0E        -0.3966
     40 O4         -9.1560   17.6810   20.0310 O.2       1 U0E        -0.3973
     41 O5         -6.9600   18.8860   21.9850 O.2       1 U0E        -0.3944
     42 O6         -4.7830   15.5080   19.9420 O.2       1 U0E        -0.3947
     43 H1         -9.5279   14.9204   32.7384 H         1 U0E         0.0467
     44 H2        -11.1278   15.6838   32.4486 H         1 U0E         0.0467
     45 H3         -9.6284   16.6650   32.3226 H         1 U0E         0.0467
     46 H4        -10.2769   15.1321   28.0919 H         1 U0E         0.0582
     47 H5        -12.4336   15.9431   27.0271 H         1 U0E         0.0291
     48 H6        -12.7647   16.9261   28.4937 H         1 U0E         0.0291
     49 H7        -12.4712   14.6608   29.7914 H         1 U0E         0.0302
     50 H8        -14.8862   15.1570   27.9737 H         1 U0E         0.0268
     51 H9        -14.5764   15.9453   29.5578 H         1 U0E         0.0268
     52 H10       -16.1521   14.0326   29.7769 H         1 U0E         0.0265
     53 H11       -14.6266   13.7440   30.6804 H         1 U0E         0.0265
     54 H12       -15.3414   12.6361   27.9141 H         1 U0E         0.0265
     55 H13       -15.2956   11.7129   29.4543 H         1 U0E         0.0265
     56 H14       -13.2313   11.3893   28.0660 H         1 U0E         0.0265
     57 H15       -12.8829   12.1181   29.6704 H         1 U0E         0.0265
     58 H16       -11.6020   13.2940   27.9355 H         1 U0E         0.0268
     59 H17       -13.1004   13.5934   26.9912 H         1 U0E         0.0268
     60 H18       -10.2492   17.0079   26.5766 H         1 U0E         0.0618
     61 H19        -8.2147   16.6964   28.2359 H         1 U0E         0.0318
     62 H20        -8.7502   18.3082   28.8207 H         1 U0E         0.0318
     63 H21        -8.3639   19.1971   26.5104 H         1 U0E         0.0541
     64 H22        -6.6541   19.0809   28.4954 H         1 U0E         0.0322
     65 H23        -4.5183   17.9479   27.9119 H         1 U0E         0.0234
     66 H24        -5.3006   17.2208   26.4677 H         1 U0E         0.0234
     67 H25        -5.8543   16.7644   28.1144 H         1 U0E         0.0234
     68 H26        -6.4945   20.7127   26.5981 H         1 U0E         0.0234
     69 H27        -5.5923   19.4862   25.6449 H         1 U0E         0.0234
     70 H28        -4.8817   20.1510   27.1548 H         1 U0E         0.0234
     71 H29        -7.1821   16.0474   23.6232 H         1 U0E         0.0801
     72 H30        -9.3845   17.7186   22.3254 H         1 U0E         0.0337
     73 H31        -9.6650   16.3211   23.4185 H         1 U0E         0.0337
     74 H32        -9.8005   15.2087   21.4336 H         1 U0E         0.0504
     75 H33        -8.0174   15.1404   21.6395 H         1 U0E         0.0504
     76 H34        -4.7647   18.6035   20.9389 H         1 U0E         0.0800
     77 H35        -2.7121   16.5285   21.6356 H         1 U0E         0.0313
     78 H36        -3.3733   17.4906   23.0008 H         1 U0E         0.0313
     79 H37        -2.7947   19.3262   20.8968 H         1 U0E         0.0301
     80 H38        -1.3862   18.2190   21.0262 H         1 U0E         0.0301
     81 H39        -2.4090   19.1527   23.6387 H         1 U0E         0.0689
     82 H40        -1.8351   20.4789   22.5717 H         1 U0E         0.0689
     83 H41       -10.9980   17.0032   30.3257 H         1 U0E         0.1855
     84 H42        -8.1436   18.7564   24.4717 H         1 U0E         0.1883
     85 H43        -7.9321   16.4591   18.3031 H         1 U0E         0.1814
     86 H44        -7.6769   15.0519   19.2801 H         1 U0E         0.1814
     87 H45        -5.5073   16.1384   22.4758 H         1 U0E         0.1883
     88 H46        -4.0791   16.6859   17.9344 H         1 U0E         0.1815
     89 H47        -3.8690   18.2203   18.7099 H         1 U0E         0.1815
     90 H48        -0.0308   18.1332   22.9607 H         1 U0E         0.2642
     91 H49         0.7423   21.8580   24.4596 H         1 U0E         0.2615
     92 H50        -0.9044   21.4760   23.8895 H         1 U0E         0.2615
     93 H51         2.3735   20.4313   24.3530 H         1 U0E         0.2615
     94 H52         2.1684   18.7884   23.6887 H         1 U0E         0.2615
     95 H53       -11.8611   18.2406   27.7200 H         1 U0E         0.2099
@<TRIPOS>BOND
     1    2    1 1  
     2   29    2 am 
     3    2   37 2  
     4    3    4 1  
     5   11    3 1  
     6    3   29 1  
     7    4    5 1  
     8    5    6 1  
     9    5   10 1  
    10    6    7 1  
    11    7    8 1  
    12    9    8 1  
    13   10    9 1  
    14   12   11 1  
    15   11   38 1  
    16   13   12 1  
    17   13   14 1  
    18   17   13 1  
    19   14   15 1  
    20   14   16 1  
    21   30   17 am 
    22   17   39 2  
    23   18   19 1  
    24   22   18 1  
    25   18   30 1  
    26   19   20 1  
    27   20   21 1  
    28   21   31 am 
    29   21   40 2  
    30   32   22 am 
    31   22   41 2  
    32   23   24 1  
    33   25   23 1  
    34   23   32 1  
    35   24   33 am 
    36   24   42 2  
    37   26   25 1  
    38   27   26 1  
    39   34   27 1  
    40   28   36 ar 
    41   28   35 ar 
    42   34   28 ar 
    43    1   43 1  
    44    1   44 1  
    45    1   45 1  
    46    3   46 1  
    47    4   47 1  
    48    4   48 1  
    49    5   49 1  
    50    6   50 1  
    51    6   51 1  
    52    7   52 1  
    53    7   53 1  
    54    8   54 1  
    55    8   55 1  
    56    9   56 1  
    57    9   57 1  
    58   10   58 1  
    59   10   59 1  
    60   11   60 1  
    61   12   61 1  
    62   12   62 1  
    63   13   63 1  
    64   14   64 1  
    65   15   65 1  
    66   15   66 1  
    67   15   67 1  
    68   16   68 1  
    69   16   69 1  
    70   16   70 1  
    71   18   71 1  
    72   19   72 1  
    73   19   73 1  
    74   20   74 1  
    75   20   75 1  
    76   23   76 1  
    77   25   77 1  
    78   25   78 1  
    79   26   79 1  
    80   26   80 1  
    81   27   81 1  
    82   27   82 1  
    83   29   83 1  
    84   30   84 1  
    85   31   85 1  
    86   31   86 1  
    87   32   87 1  
    88   33   88 1  
    89   33   89 1  
    90   34   90 1  
    91   35   91 1  
    92   35   92 1  
    93   36   93 1  
    94   36   94 1  
    95   38   95 1  
@<TRIPOS>SUBSTRUCTURE
     1 U0E         1

