### 
### Created by X-TOOL on Mon Sep 10 21:12:45 2018
### 

@<TRIPOS>MOLECULE
1gnn_ligand
   95    95     1     0     0
SMALL
GAST_HUCK


@<TRIPOS>ATOM
      1 C1         -9.7870   15.5500   31.9810 C.3       1 U0E         0.0257
      2 C2         -9.8910   15.3150   30.4740 C.2       1 U0E         0.1732
      3 C3        -10.8230   16.2040   28.3790 C.3       1 U0E         0.0682
      4 C4        -12.3130   16.0210   28.0540 C.3       1 U0E        -0.0246
      5 C5        -12.7500   14.6950   28.6840 C.3       1 U0E        -0.0389
      6 C6        -14.2430   14.7380   29.0180 C.3       1 U0E        -0.0501
      7 C7        -14.6920   13.3870   29.5710 C.3       1 U0E        -0.0528
      8 C8        -14.4220   12.2690   28.5580 C.3       1 U0E        -0.0530
      9 C9        -12.9350   12.2180   28.1880 C.3       1 U0E        -0.0528
     10 C10       -12.4610   13.5790   27.6630 C.3       1 U0E        -0.0501
     11 C11       -10.3670   17.5300   27.7370 C.3       1 U0E         0.0804
     12 C12        -8.8930   17.8210   27.9520 C.3       1 U0E        -0.0047
     13 C13        -7.9830   18.3160   26.8370 C.3       1 U0E         0.0535
     14 C14        -6.5880   18.5940   27.3800 C.3       1 U0E        -0.0269
     15 C15        -5.8750   17.3260   27.8570 C.3       1 U0E        -0.0603
     16 C16        -5.6610   19.2260   26.3410 C.3       1 U0E        -0.0603
     17 C17        -7.8460   17.2620   25.7430 C.2       1 U0E         0.1816
     18 C18        -7.6690   16.9410   23.3400 C.3       1 U0E         0.1330
     19 C19        -9.0130   16.7130   22.6530 C.3       1 U0E         0.0045
     20 C20        -8.9090   15.7900   21.4390 C.3       1 U0E         0.0412
     21 C21        -8.7030   16.5570   20.1350 C.2       1 U0E         0.1737
     22 C22        -6.7030   17.6570   22.4020 C.2       1 U0E         0.2040
     23 C23        -4.5390   17.4790   21.2780 C.3       1 U0E         0.1307
     24 C24        -4.5400   16.7320   19.9440 C.2       1 U0E         0.1992
     25 C25        -3.1860   17.2780   21.9600 C.3       1 U0E        -0.0092
     26 C26        -2.1630   18.3500   21.5840 C.3       1 U0E        -0.0156
     27 C27        -1.0180   18.4580   22.5920 C.3       1 U0E         0.0627
     28 C28         0.0430   20.3510   23.7960 C.cat     1 U0E         0.2882
     29 N1        -10.6160   16.2220   29.8360 N.am      1 U0E        -0.2816
     30 N2         -7.8420   17.7610   24.5340 N.am      1 U0E        -0.2652
     31 N3         -7.9470   16.0480   19.1810 N.am      1 U0E        -0.3009
     32 N4         -5.6110   16.9720   22.1400 N.am      1 U0E        -0.2637
     33 N5         -5.2640   17.1750   18.9090 N.am      1 U0E        -0.2990
     34 N6         -1.0510   19.7070   23.3660 N.pl3     1 U0E        -0.2723
     35 N7          1.2260   19.7230   23.8750 N.pl3     1 U0E        -0.2849
     36 N8          0.0580   21.6360   24.1740 N.pl3     1 U0E        -0.2849
     37 O1         -9.3170   14.3540   29.9400 O.2       1 U0E        -0.3974
     38 O2        -11.1130   18.6060   28.2800 O.3       1 U0E        -0.3894
     39 O3         -7.7470   16.0580   26.0180 O.2       1 U0E        -0.3966
     40 O4         -9.2440   17.6510   19.9770 O.2       1 U0E        -0.3973
     41 O5         -6.9620   18.7880   21.9640 O.2       1 U0E        -0.3944
     42 O6         -3.8700   15.7010   19.7910 O.2       1 U0E        -0.3947
     43 H1         -9.1723   14.7582   32.4340 H         1 U0E         0.0467
     44 H2        -10.7932   15.5323   32.4252 H         1 U0E         0.0467
     45 H3         -9.3207   16.5285   32.1682 H         1 U0E         0.0467
     46 H4        -10.2468   15.3719   27.9482 H         1 U0E         0.0582
     47 H5        -12.4606   15.9881   26.9645 H         1 U0E         0.0291
     48 H6        -12.8968   16.8511   28.4783 H         1 U0E         0.0291
     49 H7        -12.1774   14.5133   29.6054 H         1 U0E         0.0302
     50 H8        -14.8142   14.9667   28.1061 H         1 U0E         0.0268
     51 H9        -14.4259   15.5190   29.7707 H         1 U0E         0.0268
     52 H10       -15.7699   13.4256   29.7870 H         1 U0E         0.0265
     53 H11       -14.1395   13.1749   30.4983 H         1 U0E         0.0265
     54 H12       -15.0136   12.4548   27.6494 H         1 U0E         0.0265
     55 H13       -14.7177   11.3049   28.9974 H         1 U0E         0.0265
     56 H14       -12.7826   11.4571   27.4084 H         1 U0E         0.0265
     57 H15       -12.3496   11.9512   29.0803 H         1 U0E         0.0265
     58 H16       -11.3781   13.5348   27.4752 H         1 U0E         0.0268
     59 H17       -12.9871   13.8054   26.7239 H         1 U0E         0.0268
     60 H18       -10.5560   17.4697   26.6550 H         1 U0E         0.0618
     61 H19        -8.4471   16.8835   28.3158 H         1 U0E         0.0318
     62 H20        -8.8450   18.5818   28.7450 H         1 U0E         0.0318
     63 H21        -8.4058   19.2377   26.4108 H         1 U0E         0.0541
     64 H22        -6.6944   19.2846   28.2295 H         1 U0E         0.0322
     65 H23        -4.8764   17.5877   28.2368 H         1 U0E         0.0234
     66 H24        -5.7750   16.6233   27.0166 H         1 U0E         0.0234
     67 H25        -6.4612   16.8559   28.6603 H         1 U0E         0.0234
     68 H26        -6.1181   20.1491   25.9551 H         1 U0E         0.0234
     69 H27        -5.5041   18.5202   25.5120 H         1 U0E         0.0234
     70 H28        -4.6940   19.4634   26.8085 H         1 U0E         0.0234
     71 H29        -7.2446   15.9671   23.6251 H         1 U0E         0.0801
     72 H30        -9.4081   17.6849   22.3226 H         1 U0E         0.0337
     73 H31        -9.7065   16.2626   23.3784 H         1 U0E         0.0337
     74 H32        -9.8371   15.2047   21.3607 H         1 U0E         0.0504
     75 H33        -8.0575   15.1093   21.5857 H         1 U0E         0.0504
     76 H34        -4.6998   18.5517   21.0949 H         1 U0E         0.0800
     77 H35        -2.7880   16.2954   21.6667 H         1 U0E         0.0313
     78 H36        -3.3354   17.3028   23.0495 H         1 U0E         0.0313
     79 H37        -2.6761   19.3215   21.5300 H         1 U0E         0.0301
     80 H38        -1.7412   18.1027   20.5986 H         1 U0E         0.0301
     81 H39        -0.0643   18.4090   22.0460 H         1 U0E         0.0689
     82 H40        -1.0846   17.6108   23.2905 H         1 U0E         0.0689
     83 H41       -11.0424   16.9527   30.3692 H         1 U0E         0.1855
     84 H42        -7.9628   18.7475   24.4233 H         1 U0E         0.1883
     85 H43        -7.8128   16.5513   18.3273 H         1 U0E         0.1814
     86 H44        -7.5082   15.1589   19.3116 H         1 U0E         0.1814
     87 H45        -5.5074   16.0645   22.5472 H         1 U0E         0.1883
     88 H46        -5.2549   16.6760   18.0424 H         1 U0E         0.1815
     89 H47        -5.8140   18.0050   19.0023 H         1 U0E         0.1815
     90 H48        -1.9707   20.1120   23.5917 H         1 U0E         0.2642
     91 H49         2.0578   20.2314   24.2074 H         1 U0E         0.2615
     92 H50         1.3024   18.7324   23.6032 H         1 U0E         0.2615
     93 H51         0.9362   22.0683   24.4945 H         1 U0E         0.2615
     94 H52        -0.8087   22.1918   24.1442 H         1 U0E         0.2615
     95 H53       -10.8706   19.4121   27.8395 H         1 U0E         0.2099
@<TRIPOS>BOND
     1    2    1 1  
     2   29    2 am 
     3    2   37 2  
     4    3    4 1  
     5   11    3 1  
     6    3   29 1  
     7    4    5 1  
     8    5    6 1  
     9    5   10 1  
    10    6    7 1  
    11    7    8 1  
    12    9    8 1  
    13   10    9 1  
    14   12   11 1  
    15   11   38 1  
    16   13   12 1  
    17   13   14 1  
    18   17   13 1  
    19   14   15 1  
    20   14   16 1  
    21   30   17 am 
    22   17   39 2  
    23   18   19 1  
    24   22   18 1  
    25   18   30 1  
    26   19   20 1  
    27   20   21 1  
    28   21   31 am 
    29   21   40 2  
    30   32   22 am 
    31   22   41 2  
    32   23   24 1  
    33   25   23 1  
    34   23   32 1  
    35   24   33 am 
    36   24   42 2  
    37   26   25 1  
    38   27   26 1  
    39   34   27 1  
    40   28   36 ar 
    41   28   35 ar 
    42   34   28 ar 
    43    1   43 1  
    44    1   44 1  
    45    1   45 1  
    46    3   46 1  
    47    4   47 1  
    48    4   48 1  
    49    5   49 1  
    50    6   50 1  
    51    6   51 1  
    52    7   52 1  
    53    7   53 1  
    54    8   54 1  
    55    8   55 1  
    56    9   56 1  
    57    9   57 1  
    58   10   58 1  
    59   10   59 1  
    60   11   60 1  
    61   12   61 1  
    62   12   62 1  
    63   13   63 1  
    64   14   64 1  
    65   15   65 1  
    66   15   66 1  
    67   15   67 1  
    68   16   68 1  
    69   16   69 1  
    70   16   70 1  
    71   18   71 1  
    72   19   72 1  
    73   19   73 1  
    74   20   74 1  
    75   20   75 1  
    76   23   76 1  
    77   25   77 1  
    78   25   78 1  
    79   26   79 1  
    80   26   80 1  
    81   27   81 1  
    82   27   82 1  
    83   29   83 1  
    84   30   84 1  
    85   31   85 1  
    86   31   86 1  
    87   32   87 1  
    88   33   88 1  
    89   33   89 1  
    90   34   90 1  
    91   35   91 1  
    92   35   92 1  
    93   36   93 1  
    94   36   94 1  
    95   38   95 1  
@<TRIPOS>SUBSTRUCTURE
     1 U0E         1

