### 
### Created by X-TOOL on Mon Sep 10 21:12:45 2018
### 

@<TRIPOS>MOLECULE
1gno_ligand
   95    95     1     0     0
SMALL
GAST_HUCK


@<TRIPOS>ATOM
      1 C1        -10.6580   15.8380   32.1840 C.3       1 U0E         0.0257
      2 C2        -10.2920   15.5260   30.7320 C.2       1 U0E         0.1732
      3 C3        -10.8580   15.9720   28.3960 C.3       1 U0E         0.0682
      4 C4        -12.1480   15.7030   27.6380 C.3       1 U0E        -0.0246
      5 C5        -13.0410   14.5040   28.0270 C.3       1 U0E        -0.0389
      6 C6        -12.1770   13.2660   28.2840 C.3       1 U0E        -0.0501
      7 C7        -13.0650   12.0760   28.6400 C.3       1 U0E        -0.0528
      8 C8        -13.9120   12.3800   29.8790 C.3       1 U0E        -0.0530
      9 C9        -14.7710   13.6310   29.6580 C.3       1 U0E        -0.0528
     10 C10       -13.8950   14.8270   29.2670 C.3       1 U0E        -0.0501
     11 C11       -10.4060   17.2960   27.7610 C.3       1 U0E         0.0804
     12 C12        -8.9050   17.5510   27.8090 C.3       1 U0E        -0.0047
     13 C13        -8.1610   18.2170   26.6510 C.3       1 U0E         0.0535
     14 C14        -6.8790   18.8810   27.1530 C.3       1 U0E        -0.0269
     15 C15        -5.6790   17.9340   27.1520 C.3       1 U0E        -0.0603
     16 C16        -6.4590   20.0850   26.3060 C.3       1 U0E        -0.0603
     17 C17        -7.7980   17.1670   25.6040 C.2       1 U0E         0.1816
     18 C18        -7.5590   16.7590   23.1990 C.3       1 U0E         0.1330
     19 C19        -8.8370   16.3650   22.4540 C.3       1 U0E         0.0045
     20 C20        -9.2150   17.3510   21.3470 C.3       1 U0E         0.0412
     21 C21        -8.7320   16.9150   19.9610 C.2       1 U0E         0.1737
     22 C22        -6.6430   17.5360   22.2540 C.2       1 U0E         0.2040
     23 C23        -4.6500   17.3860   20.8390 C.3       1 U0E         0.1307
     24 C24        -4.5800   16.5400   19.5670 C.2       1 U0E         0.1992
     25 C25        -3.2730   17.4010   21.5050 C.3       1 U0E        -0.0092
     26 C26        -3.0540   18.6220   22.4000 C.3       1 U0E        -0.0156
     27 C27        -1.5900   18.8180   22.7970 C.3       1 U0E         0.0627
     28 C28         0.3210   20.2910   22.2100 C.cat     1 U0E         0.2882
     29 N1        -11.0620   16.1200   29.8420 N.am      1 U0E        -0.2816
     30 N2         -7.8840   17.5980   24.3610 N.am      1 U0E        -0.2652
     31 N3         -8.2410   15.7020   19.7840 N.am      1 U0E        -0.3009
     32 N4         -5.6480   16.8260   21.7620 N.am      1 U0E        -0.2637
     33 N5         -3.9870   17.0080   18.4600 N.am      1 U0E        -0.2990
     34 N6         -0.9940   20.0310   22.2160 N.pl3     1 U0E        -0.2723
     35 N7          1.1270   19.7980   23.1610 N.pl3     1 U0E        -0.2849
     36 N8          0.9310   21.0430   21.2850 N.pl3     1 U0E        -0.2849
     37 O1         -9.3530   14.7650   30.4570 O.2       1 U0E        -0.3974
     38 O2        -11.0340   18.3910   28.4100 O.3       1 U0E        -0.3894
     39 O3         -7.4630   16.0230   25.9400 O.2       1 U0E        -0.3966
     40 O4         -8.8020   17.6930   19.0110 O.2       1 U0E        -0.3973
     41 O5         -6.8540   18.7320   22.0030 O.2       1 U0E        -0.3944
     42 O6         -5.0700   15.4020   19.5300 O.2       1 U0E        -0.3947
     43 H1         -9.9705   15.3058   32.8579 H         1 U0E         0.0467
     44 H2        -11.6899   15.5115   32.3803 H         1 U0E         0.0467
     45 H3        -10.5767   16.9211   32.3581 H         1 U0E         0.0467
     46 H4        -10.1240   15.1723   28.2181 H         1 U0E         0.0582
     47 H5        -11.8720   15.5630   26.5825 H         1 U0E         0.0291
     48 H6        -12.7685   16.6057   27.7382 H         1 U0E         0.0291
     49 H7        -13.7182   14.2894   27.1872 H         1 U0E         0.0302
     50 H8        -11.4881   13.4688   29.1172 H         1 U0E         0.0268
     51 H9        -11.5983   13.0310   27.3786 H         1 U0E         0.0268
     52 H10       -12.4305   11.2007   28.8430 H         1 U0E         0.0265
     53 H11       -13.7314   11.8572   27.7926 H         1 U0E         0.0265
     54 H12       -13.2465   12.5469   30.7388 H         1 U0E         0.0265
     55 H13       -14.5697   11.5228   30.0854 H         1 U0E         0.0265
     56 H14       -15.3109   13.8671   30.5868 H         1 U0E         0.0265
     57 H15       -15.4945   13.4348   28.8530 H         1 U0E         0.0265
     58 H16       -14.5415   15.6886   29.0440 H         1 U0E         0.0268
     59 H17       -13.2298   15.0754   30.1071 H         1 U0E         0.0268
     60 H18       -10.7159   17.2788   26.7057 H         1 U0E         0.0618
     61 H19        -8.4301   16.5699   27.9570 H         1 U0E         0.0318
     62 H20        -8.7274   18.1814   28.6928 H         1 U0E         0.0318
     63 H21        -8.8104   18.9790   26.1954 H         1 U0E         0.0541
     64 H22        -7.0642   19.2189   28.1833 H         1 U0E         0.0322
     65 H23        -4.7908   18.4673   27.5218 H         1 U0E         0.0234
     66 H24        -5.4932   17.5786   26.1277 H         1 U0E         0.0234
     67 H25        -5.8894   17.0748   27.8058 H         1 U0E         0.0234
     68 H26        -7.2846   20.8108   26.2657 H         1 U0E         0.0234
     69 H27        -6.2157   19.7495   25.2871 H         1 U0E         0.0234
     70 H28        -5.5750   20.5599   26.7566 H         1 U0E         0.0234
     71 H29        -7.0443   15.8493   23.5418 H         1 U0E         0.0801
     72 H30        -9.6638   16.3179   23.1780 H         1 U0E         0.0337
     73 H31        -8.6875   15.3729   22.0030 H         1 U0E         0.0337
     74 H32        -8.7681   18.3284   21.5816 H         1 U0E         0.0504
     75 H33       -10.3106   17.4453   21.3218 H         1 U0E         0.0504
     76 H34        -4.9388   18.4145   20.5766 H         1 U0E         0.0800
     77 H35        -2.5036   17.4004   20.7189 H         1 U0E         0.0313
     78 H36        -3.1708   16.4939   22.1188 H         1 U0E         0.0313
     79 H37        -3.6515   18.4974   23.3151 H         1 U0E         0.0301
     80 H38        -3.3934   19.5180   21.8596 H         1 U0E         0.0301
     81 H39        -1.0141   17.9458   22.4541 H         1 U0E         0.0689
     82 H40        -1.5305   18.8888   23.8931 H         1 U0E         0.0689
     83 H41       -11.8146   16.6940   30.1647 H         1 U0E         0.1855
     84 H42        -8.1840   18.5385   24.2016 H         1 U0E         0.1883
     85 H43        -7.9256   15.4174   18.8787 H         1 U0E         0.1814
     86 H44        -8.1846   15.0680   20.5553 H         1 U0E         0.1814
     87 H45        -5.5683   15.8653   22.0277 H         1 U0E         0.1883
     88 H46        -3.9492   16.4428   17.6359 H         1 U0E         0.1815
     89 H47        -3.5823   17.9224   18.4581 H         1 U0E         0.1815
     90 H48        -1.6257   20.7227   21.7877 H         1 U0E         0.2642
     91 H49         2.1352   20.0077   23.1412 H         1 U0E         0.2615
     92 H50         0.7381   19.2095   23.9115 H         1 U0E         0.2615
     93 H51         1.9470   21.2032   21.3397 H         1 U0E         0.2615
     94 H52         0.3842   21.4612   20.5188 H         1 U0E         0.2615
     95 H53       -10.8150   19.1955   27.9547 H         1 U0E         0.2099
@<TRIPOS>BOND
     1    2    1 1  
     2   29    2 am 
     3    2   37 2  
     4    3    4 1  
     5   11    3 1  
     6    3   29 1  
     7    4    5 1  
     8    5    6 1  
     9    5   10 1  
    10    6    7 1  
    11    7    8 1  
    12    9    8 1  
    13   10    9 1  
    14   12   11 1  
    15   11   38 1  
    16   13   12 1  
    17   13   14 1  
    18   17   13 1  
    19   14   15 1  
    20   14   16 1  
    21   30   17 am 
    22   17   39 2  
    23   18   19 1  
    24   22   18 1  
    25   18   30 1  
    26   19   20 1  
    27   20   21 1  
    28   21   31 am 
    29   21   40 2  
    30   32   22 am 
    31   22   41 2  
    32   23   24 1  
    33   25   23 1  
    34   23   32 1  
    35   24   33 am 
    36   24   42 2  
    37   26   25 1  
    38   27   26 1  
    39   34   27 1  
    40   28   36 ar 
    41   28   35 ar 
    42   34   28 ar 
    43    1   43 1  
    44    1   44 1  
    45    1   45 1  
    46    3   46 1  
    47    4   47 1  
    48    4   48 1  
    49    5   49 1  
    50    6   50 1  
    51    6   51 1  
    52    7   52 1  
    53    7   53 1  
    54    8   54 1  
    55    8   55 1  
    56    9   56 1  
    57    9   57 1  
    58   10   58 1  
    59   10   59 1  
    60   11   60 1  
    61   12   61 1  
    62   12   62 1  
    63   13   63 1  
    64   14   64 1  
    65   15   65 1  
    66   15   66 1  
    67   15   67 1  
    68   16   68 1  
    69   16   69 1  
    70   16   70 1  
    71   18   71 1  
    72   19   72 1  
    73   19   73 1  
    74   20   74 1  
    75   20   75 1  
    76   23   76 1  
    77   25   77 1  
    78   25   78 1  
    79   26   79 1  
    80   26   80 1  
    81   27   81 1  
    82   27   82 1  
    83   29   83 1  
    84   30   84 1  
    85   31   85 1  
    86   31   86 1  
    87   32   87 1  
    88   33   88 1  
    89   33   89 1  
    90   34   90 1  
    91   35   91 1  
    92   35   92 1  
    93   36   93 1  
    94   36   94 1  
    95   38   95 1  
@<TRIPOS>SUBSTRUCTURE
     1 U0E         1

