### 
### Created by X-TOOL on Mon Sep 10 21:12:49 2018
### 

@<TRIPOS>MOLECULE
1gpk_ligand
   37    39     1     0     0
SMALL
GAST_HUCK


@<TRIPOS>ATOM
      1 C1          0.7260   68.8480   60.5950 C.2       1 HUP         0.2329
      2 O1          0.2650   69.3310   59.5260 O.2       1 HUP        -0.3876
      3 N1          2.0070   68.2910   60.6140 N.am      1 HUP        -0.1804
      4 C2          0.0030   68.8250   61.8590 C.2       1 HUP         0.0044
      5 C3          0.5760   68.2720   62.9860 C.2       1 HUP        -0.0667
      6 C4          1.9080   67.6940   62.9880 C.2       1 HUP        -0.0119
      7 C5          2.6240   67.7230   61.7490 C.2       1 HUP         0.1279
      8 C6          4.0170   67.1690   61.5600 C.3       1 HUP         0.0575
      9 C7          4.6570   66.5980   62.9020 C.3       1 HUP         0.0028
     10 C8          5.3760   67.6940   63.7160 C.2       1 HUP        -0.0963
     11 C9          4.3520   63.5530   63.7420 C.3       1 HUP        -0.0165
     12 C10         3.4630   64.6910   64.1430 C.2       1 HUP        -0.0578
     13 C11         3.5630   65.9670   63.7940 C.2       1 HUP        -0.0700
     14 C12         2.5690   67.0470   64.2830 C.3       1 HUP        -0.0531
     15 N2          1.5080   66.4560   65.1460 N.4       1 HUP         0.0987
     16 C13         3.3210   68.1300   65.1110 C.3       1 HUP        -0.0479
     17 C14         4.7650   68.3870   64.7180 C.2       1 HUP        -0.0960
     18 C15         5.4530   69.4590   65.5360 C.3       1 HUP        -0.0414
     19 H1          2.5258   68.2951   59.7591 H         1 HUP         0.2789
     20 H2         -0.9989   69.2480   61.9153 H         1 HUP         0.0519
     21 H3          0.0049   68.2690   63.9133 H         1 HUP         0.0683
     22 H4          4.6638   67.9734   61.1799 H         1 HUP         0.0669
     23 H5          3.9715   66.3551   60.8214 H         1 HUP         0.0669
     24 H6          5.3896   65.8233   62.6317 H         1 HUP         0.0532
     25 H7          6.4142   67.9232   63.4802 H         1 HUP         0.0261
     26 H8          3.9902   62.6238   64.2065 H         1 HUP         0.0514
     27 H9          5.3799   63.7547   64.0778 H         1 HUP         0.0514
     28 H10         4.3383   63.4451   62.6474 H         1 HUP         0.0514
     29 H11         2.6331   64.4396   64.8017 H         1 HUP         0.1006
     30 H12         0.8775   67.1821   65.4481 H         1 HUP         0.1917
     31 H13         1.9323   66.0230   65.9513 H         1 HUP         0.1917
     32 H14         0.9963   65.7631   64.6225 H         1 HUP         0.1917
     33 H15         3.3104   67.8150   66.1649 H         1 HUP         0.0233
     34 H16         2.7704   69.0764   65.0055 H         1 HUP         0.0233
     35 H17         6.4889   69.5790   65.1860 H         1 HUP         0.0377
     36 H18         5.4559   69.1659   66.5962 H         1 HUP         0.0377
     37 H19         4.9142   70.4110   65.4202 H         1 HUP         0.0377
@<TRIPOS>BOND
     1    4    1 1  
     2    1    3 am 
     3    1    2 2  
     4    3    7 1  
     5    7    8 1  
     6    7    6 2  
     7    6   14 1  
     8    6    5 1  
     9    5    4 2  
    10   14   16 1  
    11   14   15 1  
    12   14   13 1  
    13   13   12 2  
    14   13    9 1  
    15    9   10 1  
    16    9    8 1  
    17   10   17 2  
    18   17   18 1  
    19   16   17 1  
    20   12   11 1  
    21    3   19 1  
    22    4   20 1  
    23    5   21 1  
    24    8   22 1  
    25    8   23 1  
    26    9   24 1  
    27   10   25 1  
    28   11   26 1  
    29   11   27 1  
    30   11   28 1  
    31   12   29 1  
    32   15   30 1  
    33   15   31 1  
    34   15   32 1  
    35   16   33 1  
    36   16   34 1  
    37   18   35 1  
    38   18   36 1  
    39   18   37 1  
@<TRIPOS>SUBSTRUCTURE
     1 HUP         1

