### 
### Created by X-TOOL on Mon Sep 10 21:12:49 2018
### 

@<TRIPOS>MOLECULE
1gpn_ligand
   40    43     1     0     0
SMALL
GAST_HUCK


@<TRIPOS>ATOM
      1 C1          1.0680   68.7710   61.1630 C.2       1 HUB         0.2498
      2 O1          0.4400   69.2080   60.1960 O.2       1 HUB        -0.3733
      3 N1          2.3530   68.2650   60.9830 N.am      1 HUB        -0.1672
      4 C2          0.5440   68.7450   62.5170 C.2       1 HUB         0.0161
      5 C3          1.3020   68.2450   63.5450 C.2       1 HUB        -0.0514
      6 C4          2.6350   67.7280   63.3560 C.2       1 HUB         0.0160
      7 C5          3.1490   67.7340   62.0130 C.2       1 HUB         0.1473
      8 C6          4.5200   67.2110   61.6300 C.3       1 HUB         0.0594
      9 C7          5.3120   66.5280   62.8520 C.3       1 HUB        -0.0161
     10 C8          4.8890   65.0460   63.0240 C.2       1 HUB        -0.1040
     11 C9          5.1250   69.4560   65.4310 C.3       1 HUB        -0.0133
     12 C10         5.4320   68.7380   64.1060 C.3       1 HUB        -0.0542
     13 C11         5.0240   67.2560   64.1870 C.3       1 HUB        -0.0400
     14 C12         3.5160   67.1410   64.5690 C.3       1 HUB        -0.0482
     15 N2          3.2390   67.8790   65.8580 N.4       1 HUB         0.1281
     16 C13         3.1120   65.6420   64.7490 C.3       1 HUB        -0.0389
     17 C14         3.8870   64.6480   63.8920 C.2       1 HUB        -0.0953
     18 C15         3.4650   63.2140   64.0870 C.3       1 HUB        -0.0417
     19 C90         3.6510   69.3860   65.8010 C.3       1 HUB        -0.0419
     20 H1          2.7351   68.2804   60.0590 H         1 HUB         0.2869
     21 H2         -0.4568   69.1247   62.7175 H         1 HUB         0.0599
     22 H3          0.8785   68.2381   64.5483 H         1 HUB         0.0714
     23 H4          5.1204   68.0521   61.2530 H         1 HUB         0.0684
     24 H5          4.3968   66.4624   60.8335 H         1 HUB         0.0684
     25 H6          6.3903   66.5755   62.6400 H         1 HUB         0.0411
     26 H7          5.4022   64.2859   62.4368 H         1 HUB         0.0247
     27 H8          5.4154   70.5127   65.3357 H         1 HUB         0.0317
     28 H9          5.7130   68.9850   66.2325 H         1 HUB         0.0317
     29 H10         4.8718   69.2235   63.2933 H         1 HUB         0.0258
     30 H11         6.5103   68.8056   63.8994 H         1 HUB         0.0258
     31 H12         5.6201   66.7745   64.9762 H         1 HUB         0.0175
     32 H13         3.7547   67.4331   66.6004 H         1 HUB         0.1938
     33 H14         2.2518   67.8233   66.0541 H         1 HUB         0.1938
     34 H15         2.0451   65.5458   64.4991 H         1 HUB         0.0263
     35 H16         3.2671   65.3732   65.8043 H         1 HUB         0.0263
     36 H17         4.0679   62.5628   63.4371 H         1 HUB         0.0375
     37 H18         2.4012   63.1064   63.8285 H         1 HUB         0.0375
     38 H19         3.6180   62.9264   65.1376 H         1 HUB         0.0375
     39 H20         3.0503   69.9089   65.0422 H         1 HUB         0.0816
     40 H21         3.4898   69.8545   66.7831 H         1 HUB         0.0816
@<TRIPOS>BOND
     1    4    1 1  
     2    1    3 am 
     3    1    2 2  
     4    3    7 am 
     5    7    8 1  
     6    7    6 2  
     7    6   14 1  
     8    6    5 1  
     9    5    4 2  
    10   14   16 1  
    11   14   15 1  
    12   14   13 1  
    13   13   12 1  
    14   13    9 1  
    15    9   10 1  
    16    9    8 1  
    17   10   17 2  
    18   17   18 1  
    19   16   17 1  
    20   12   11 1  
    21   11   19 1  
    22   19   15 1  
    23    3   20 1  
    24    4   21 1  
    25    5   22 1  
    26    8   23 1  
    27    8   24 1  
    28    9   25 1  
    29   10   26 1  
    30   11   27 1  
    31   11   28 1  
    32   12   29 1  
    33   12   30 1  
    34   13   31 1  
    35   15   32 1  
    36   15   33 1  
    37   16   34 1  
    38   16   35 1  
    39   18   36 1  
    40   18   37 1  
    41   18   38 1  
    42   19   39 1  
    43   19   40 1  
@<TRIPOS>SUBSTRUCTURE
     1 HUB         1

