### 
### Created by X-TOOL on Mon Sep 10 21:12:49 2018
### 

@<TRIPOS>MOLECULE
1gqs_ligand
   28    28     1     0     0
SMALL
GAST_HUCK


@<TRIPOS>ATOM
      1 H1          4.4531   67.1407   66.2052 H         1 SAF         0.0466
      2 H2          4.1719   66.1134   62.0109 H         1 SAF         0.0480
      3 H3          5.7638   69.9852   63.1429 H         1 SAF         0.0485
      4 H4          5.4085   69.3763   65.5634 H         1 SAF         0.0572
      5 H5          5.9821   68.4146   60.9062 H         1 SAF         0.2479
      6 H6          5.3895   63.9929   64.0948 H         1 SAF         0.2045
      7 H7          4.5981   61.7794   64.3955 H         1 SAF         0.0778
      8 H8          2.9500   62.4683   64.5842 H         1 SAF         0.0778
      9 H9          4.2228   62.8394   65.7962 H         1 SAF         0.0778
     10 H10         4.4249   64.0747   61.9083 H         1 SAF         0.0778
     11 H11         3.1047   63.0281   62.5315 H         1 SAF         0.0778
     12 H12         4.7870   62.4028   62.4561 H         1 SAF         0.0778
     13 H13         2.6953   65.0176   63.8189 H         1 SAF         0.1012
     14 H14         2.4664   65.6979   66.0940 H         1 SAF         0.0307
     15 H15         3.8553   64.6326   66.4973 H         1 SAF         0.0307
     16 C1          4.5940   67.3870   65.1590 C.ar      1 SAF        -0.0661
     17 C3          4.4330   66.8070   62.8020 C.ar      1 SAF        -0.0272
     18 C4          4.9620   68.0540   62.4570 C.ar      1 SAF         0.0811
     19 C5          5.3440   69.0270   63.4270 C.ar      1 SAF        -0.0403
     20 C6          5.1430   68.6690   64.7860 C.ar      1 SAF        -0.0770
     21 O4          5.0720   68.2550   61.1270 O.3       1 SAF        -0.3349
     22 N2          4.4100   63.7850   63.9790 N.4       1 SAF         0.2447
     23 C7          4.0240   62.6560   64.7300 C.3       1 SAF        -0.0417
     24 C8          4.1670   63.2930   62.6380 C.3       1 SAF        -0.0417
     25 C9          3.5870   65.0270   64.4630 C.3       1 SAF         0.0069
     26 C10         3.0370   64.8100   65.7840 C.3       1 SAF        -0.0116
     27 C40         4.2290   66.4230   64.1260 C.ar      1 SAF        -0.0047
     28 H16         2.3712   63.9346   65.7647 H         1 SAF         0.0307
@<TRIPOS>BOND
     1   16    1 1  
     2   17    2 1  
     3   19    3 1  
     4   20    4 1  
     5   21    5 1  
     6   22    6 1  
     7   23    7 1  
     8   23    8 1  
     9   23    9 1  
    10   24   10 1  
    11   24   11 1  
    12   24   12 1  
    13   25   13 1  
    14   26   14 1  
    15   26   15 1  
    16   16   20 ar 
    17   27   16 ar 
    18   17   18 ar 
    19   27   17 ar 
    20   18   19 ar 
    21   18   21 1  
    22   20   19 ar 
    23   22   23 1  
    24   22   24 1  
    25   25   22 1  
    26   25   26 1  
    27   27   25 1  
    28   26   28 1  
@<TRIPOS>SUBSTRUCTURE
     1 SAF         1

