### 
### Created by X-TOOL on Mon Sep 10 21:12:45 2018
### 

@<TRIPOS>MOLECULE
1grp_ligand
   18    17     1     0     0
SMALL
GAST_HUCK


@<TRIPOS>ATOM
      1 C1         85.3340   67.4820    3.4280 C.2       1 ICT         0.0654
      2 O1         85.8940   66.7740    4.2520 O.co2     1 ICT        -0.5662
      3 O2         84.8120   68.5500    3.7260 O.co2     1 ICT        -0.5662
      4 C2         85.2860   66.9910    1.9840 C.3       1 ICT         0.1228
      5 O7         84.8980   68.0580    1.1360 O.3       1 ICT        -0.3756
      6 C3         84.3130   65.8010    1.8310 C.3       1 ICT         0.0609
      7 C4         84.3210   65.2300    0.4060 C.3       1 ICT         0.0185
      8 C5         85.1940   64.0140    0.2250 C.2       1 ICT         0.0369
      9 O3         86.2050   64.1000   -0.4670 O.co2     1 ICT        -0.5689
     10 O4         84.8440   62.9760    0.7710 O.co2     1 ICT        -0.5689
     11 C6         82.8650   66.2010    2.1800 C.2       1 ICT         0.0436
     12 O5         82.5580   66.2640    3.3680 O.co2     1 ICT        -0.5684
     13 O6         82.0430   66.4310    1.2920 O.co2     1 ICT        -0.5684
     14 H1         86.2927   66.6563    1.6935 H         1 ICT         0.0786
     15 H2         84.0216   68.3423    1.3674 H         1 ICT         0.2125
     16 H3         84.6355   65.0112    2.5254 H         1 ICT         0.0528
     17 H4         84.6790   66.0147   -0.2767 H         1 ICT         0.0453
     18 H5         83.2896   64.9552    0.1401 H         1 ICT         0.0453
@<TRIPOS>BOND
     1    1    4 1  
     2    1    3 ar 
     3    1    2 ar 
     4    4    6 1  
     5    4    5 1  
     6    6   11 1  
     7    6    7 1  
     8    7    8 1  
     9    8   10 ar 
    10    8    9 ar 
    11   11   13 ar 
    12   11   12 ar 
    13    4   14 1  
    14    5   15 1  
    15    6   16 1  
    16    7   17 1  
    17    7   18 1  
@<TRIPOS>SUBSTRUCTURE
     1 ICT         1

