### 
### Created by X-TOOL on Mon Sep 10 21:12:45 2018
### 

@<TRIPOS>MOLECULE
1gsf_ligand
   30    30     1     0     0
SMALL
GAST_HUCK


@<TRIPOS>ATOM
      1 C1         88.3190   27.9380   14.8870 C.ar      1 EAA         0.1139
      2 O2         87.9030   29.1770   14.4270 O.3       1 EAA        -0.2994
      3 C2         89.5140   27.3760   14.4540 C.ar      1 EAA         0.0881
      4 CL1        90.6280   28.3360   13.4790 Cl        1 EAA        -0.0767
      5 C3         89.8600   26.0750   14.7670 C.ar      1 EAA         0.0650
      6 CL2        91.3830   25.4320   14.1560 Cl        1 EAA        -0.0667
      7 C4         89.0290   25.2730   15.5380 C.ar      1 EAA         0.0377
      8 C5         87.8620   25.8500   16.0180 C.ar      1 EAA        -0.0512
      9 C6         87.5200   27.1610   15.6980 C.ar      1 EAA        -0.0258
     10 C7         89.3290   23.8910   15.7610 C.2       1 EAA         0.1527
     11 O1         88.5420   23.0440   15.3240 O.2       1 EAA        -0.3720
     12 C8         90.4860   23.5100   16.4790 C.2       1 EAA         0.0058
     13 C9         90.5260   23.8250   17.8620 C.3       1 EAA        -0.0152
     14 C10        89.2370   23.6450   18.6760 C.3       1 EAA        -0.0548
     15 C11        91.3800   22.8640   15.9580 C.2       1 EAA        -0.0907
     16 C12        86.5960   29.6750   14.8530 C.3       1 EAA         0.1241
     17 C13        85.4390   29.0540   14.0450 C.2       1 EAA         0.0656
     18 O          85.5860   27.9510   13.4650 O.co2     1 EAA        -0.5662
     19 OXT        84.3550   29.6770   14.0310 O.co2     1 EAA        -0.5662
     20 H1         87.2042   25.2690   16.6542 H         1 EAA         0.0644
     21 H2         86.6033   27.5808   16.0962 H         1 EAA         0.0559
     22 H3         90.8242   24.8802   17.9494 H         1 EAA         0.0432
     23 H4         91.2955   23.1872   18.3214 H         1 EAA         0.0432
     24 H5         89.4223   23.9266   19.7231 H         1 EAA         0.0253
     25 H6         88.9182   22.5932   18.6301 H         1 EAA         0.0253
     26 H7         88.4469   24.2862   18.2582 H         1 EAA         0.0253
     27 H8         91.3348   22.6303   14.8953 H         1 EAA         0.0460
     28 H9         92.2233   22.5209   16.5556 H         1 EAA         0.0460
     29 H10        86.5734   30.7667   14.7203 H         1 EAA         0.0788
     30 H11        86.4547   29.4318   15.9164 H         1 EAA         0.0788
@<TRIPOS>BOND
     1    1    2 1  
     2    1    3 ar 
     3    1    9 ar 
     4    2   16 1  
     5    3    4 1  
     6    3    5 ar 
     7    5    6 1  
     8    5    7 ar 
     9    7    8 ar 
    10    7   10 1  
    11    8    9 ar 
    12   10   11 2  
    13   10   12 1  
    14   12   13 1  
    15   12   15 2  
    16   13   14 1  
    17   16   17 1  
    18   17   18 ar 
    19   17   19 ar 
    20    8   20 1  
    21    9   21 1  
    22   13   22 1  
    23   13   23 1  
    24   14   24 1  
    25   14   25 1  
    26   14   26 1  
    27   15   27 1  
    28   15   28 1  
    29   16   29 1  
    30   16   30 1  
@<TRIPOS>SUBSTRUCTURE
     1 EAA         1

