### 
### Created by X-TOOL on Mon Sep 10 21:12:50 2018
### 

@<TRIPOS>MOLECULE
1gsz_ligand
   56    57     1     0     0
SMALL
GAST_HUCK


@<TRIPOS>ATOM
      1 C8         68.8470   72.7280   71.6980 C.ar      1 R71         0.0340
      2 C7         68.2980   71.3300   71.3830 C.2       1 R71         0.1536
      3 O21        68.8730   70.3020   72.0110 O.2       1 R71        -0.3741
      4 C1         67.1500   71.0160   70.4170 C.ar      1 R71         0.0569
      5 C6         66.2770   69.8740   70.5730 C.ar      1 R71         0.1440
      6 F22        66.4160   69.0130   71.5790 F         1 R71        -0.1800
      7 C5         65.2380   69.6410   69.6400 C.ar      1 R71         0.0067
      8 C4         65.0400   70.5240   68.5470 C.ar      1 R71         0.0952
      9 O14        64.0150   70.2850   67.6440 O.3       1 R71        -0.3153
     10 C15        64.3350   69.4070   66.5670 C.3       1 R71         0.0717
     11 C16        63.1820   69.4280   65.5630 C.3       1 R71        -0.0248
     12 C17        63.2180   70.7640   64.8040 C.3       1 R71        -0.0504
     13 C18        63.9320   70.5690   63.4590 C.3       1 R71        -0.0482
     14 C19        62.9600   69.9330   62.4620 C.3       1 R71        -0.0125
     15 C20        62.1340   71.0350   61.7900 C.3       1 R71        -0.0305
     16 N24        62.6720   71.3680   60.4710 N.4       1 R71         0.2462
     17 C27        62.9220   72.8100   60.3860 C.3       1 R71        -0.0415
     18 C25        61.7140   70.9600   59.4190 C.3       1 R71        -0.0043
     19 C26        61.8200   69.5030   59.0230 C.2       1 R71        -0.0447
     20 C29        62.9840   68.9610   58.6510 C.2       1 R71        -0.1125
     21 C3         65.8920   71.6460   68.3920 C.ar      1 R71        -0.0305
     22 C2         66.9320   71.8870   69.3160 C.ar      1 R71        -0.0532
     23 C13        70.2580   72.9100   71.6960 C.ar      1 R71        -0.0411
     24 C12        70.8300   74.1720   71.9960 C.ar      1 R71        -0.0467
     25 C11        70.0010   75.2760   72.3040 C.ar      1 R71         0.0174
     26 BR23       70.7820   76.9130   72.7140 Br        1 R71        -0.0460
     27 C10        68.5790   75.1180   72.3090 C.ar      1 R71        -0.0467
     28 C9         68.0040   73.8470   72.0070 C.ar      1 R71        -0.0411
     29 H1         64.5888   68.7815   69.7615 H         1 R71         0.0541
     30 H2         64.4743   68.3854   66.9503 H         1 R71         0.0616
     31 H3         65.2601   69.7439   66.0763 H         1 R71         0.0616
     32 H4         62.2246   69.3301   66.0958 H         1 R71         0.0291
     33 H5         63.2934   68.5952   64.8530 H         1 R71         0.0291
     34 H6         63.7603   71.5111   65.4021 H         1 R71         0.0266
     35 H7         62.1900   71.1126   64.6262 H         1 R71         0.0266
     36 H8         64.8020   69.9101   63.5962 H         1 R71         0.0267
     37 H9         64.2672   71.5439   63.0754 H         1 R71         0.0267
     38 H10        62.2886   69.2419   62.9926 H         1 R71         0.0317
     39 H11        63.5261   69.3800   61.6980 H         1 R71         0.0317
     40 H12        62.1530   71.9344   62.4229 H         1 R71         0.0814
     41 H13        61.0964   70.6878   61.6772 H         1 R71         0.0814
     42 H14        63.5403   70.8744   60.3350 H         1 R71         0.2047
     43 H15        63.3262   73.0541   59.3925 H         1 R71         0.0778
     44 H16        63.6478   73.1025   61.1591 H         1 R71         0.0778
     45 H17        61.9797   73.3554   60.5425 H         1 R71         0.0778
     46 H18        61.8976   71.5756   58.5261 H         1 R71         0.0997
     47 H19        60.6946   71.1449   59.7886 H         1 R71         0.0997
     48 H20        60.9263   68.8811   59.0416 H         1 R71         0.0725
     49 H21        63.0303   67.9096   58.3713 H         1 R71         0.0292
     50 H22        63.8859   69.5709   58.6277 H         1 R71         0.0292
     51 H23        65.7442   72.3234   67.5587 H         1 R71         0.0525
     52 H24        67.5742   72.7501   69.1833 H         1 R71         0.0634
     53 H25        70.9047   72.0721   71.4618 H         1 R71         0.0675
     54 H26        71.9074   74.2915   71.9893 H         1 R71         0.0655
     55 H27        67.9396   75.9619   72.5417 H         1 R71         0.0655
     56 H28        66.9267   73.7268   72.0111 H         1 R71         0.0675
@<TRIPOS>BOND
     1    1    2 1  
     2    1   23 ar 
     3    1   28 ar 
     4    2    3 2  
     5    2    4 1  
     6    4    5 ar 
     7    4   22 ar 
     8    5    6 1  
     9    5    7 ar 
    10    7    8 ar 
    11    8    9 1  
    12    8   21 ar 
    13    9   10 1  
    14   10   11 1  
    15   11   12 1  
    16   12   13 1  
    17   13   14 1  
    18   14   15 1  
    19   15   16 1  
    20   16   17 1  
    21   16   18 1  
    22   18   19 1  
    23   19   20 2  
    24   21   22 ar 
    25   23   24 ar 
    26   24   25 ar 
    27   25   26 1  
    28   25   27 ar 
    29   27   28 ar 
    30    7   29 1  
    31   10   30 1  
    32   10   31 1  
    33   11   32 1  
    34   11   33 1  
    35   12   34 1  
    36   12   35 1  
    37   13   36 1  
    38   13   37 1  
    39   14   38 1  
    40   14   39 1  
    41   15   40 1  
    42   15   41 1  
    43   16   42 1  
    44   17   43 1  
    45   17   44 1  
    46   17   45 1  
    47   18   46 1  
    48   18   47 1  
    49   19   48 1  
    50   20   49 1  
    51   20   50 1  
    52   21   51 1  
    53   22   52 1  
    54   23   53 1  
    55   24   54 1  
    56   27   55 1  
    57   28   56 1  
@<TRIPOS>SUBSTRUCTURE
     1 R71         1

