### 
### Created by X-TOOL on Mon Sep 10 21:12:50 2018
### 

@<TRIPOS>MOLECULE
1gt1_ligand
   26    28     1     0     0
SMALL
GAST_HUCK


@<TRIPOS>ATOM
      1 C1          0.5250   -0.6460    5.5240 C.ar      1 ANC        -0.0296
      2 C2          1.2540   -0.2730    4.4290 C.ar      1 ANC        -0.0730
      3 C3         -0.8690   -0.3490    5.6230 C.ar      1 ANC         0.0105
      4 C4          0.6170    0.4430    3.3280 C.ar      1 ANC        -0.0800
      5 C5         -1.5200    0.3530    4.5620 C.ar      1 ANC         0.0506
      6 C6         -0.7990    0.7510    3.4240 C.ar      1 ANC        -0.0468
      7 C7         -1.0660   -2.5210    9.9950 C.ar      1 ANC        -0.0620
      8 C8          0.2980   -2.8340    9.9370 C.ar      1 ANC        -0.0622
      9 C9         -1.7090   -1.8260    8.9450 C.ar      1 ANC        -0.0548
     10 C10         1.0110   -2.4360    8.8030 C.ar      1 ANC        -0.0557
     11 C11        -1.0110   -1.4370    7.8350 C.ar      1 ANC        -0.0176
     12 C12         0.3700   -1.7330    7.7390 C.ar      1 ANC        -0.0216
     13 C13         1.2090   -1.3390    6.5470 C.ar      1 ANC        -0.0540
     14 C14        -1.7260   -0.6900    6.7180 C.ar      1 ANC        -0.0432
     15 N1         -2.9900    0.6930    4.6210 N.pl3     1 ANC        -0.3314
     16 H1          2.3105   -0.5103    4.3783 H         1 ANC         0.0453
     17 H2          1.1893    0.7389    2.4562 H         1 ANC         0.0572
     18 H3         -1.2965    1.2848    2.6224 H         1 ANC         0.0447
     19 H4         -1.6414   -2.8182   10.8642 H         1 ANC         0.0607
     20 H5          0.7847   -3.3676   10.7454 H         1 ANC         0.0618
     21 H6         -2.7663   -1.5991    9.0205 H         1 ANC         0.0627
     22 H7          2.0681   -2.6649    8.7302 H         1 ANC         0.0613
     23 H8          2.2655   -1.5724    6.4809 H         1 ANC         0.0578
     24 H9         -2.7805   -0.4407    6.7486 H         1 ANC         0.0659
     25 H10        -3.5500    0.4168    5.4402 H         1 ANC         0.1767
     26 H11        -3.4327    1.2011    3.8421 H         1 ANC         0.1767
@<TRIPOS>BOND
     1    1    2 ar 
     2    3    1 ar 
     3    1   13 ar 
     4    2    4 ar 
     5    3    5 ar 
     6   14    3 ar 
     7    6    4 ar 
     8    5    6 ar 
     9    5   15 1  
    10    7    8 ar 
    11    9    7 ar 
    12   10    8 ar 
    13   11    9 ar 
    14   12   10 ar 
    15   11   12 ar 
    16   11   14 ar 
    17   12   13 ar 
    18    2   16 1  
    19    4   17 1  
    20    6   18 1  
    21    7   19 1  
    22    8   20 1  
    23    9   21 1  
    24   10   22 1  
    25   13   23 1  
    26   14   24 1  
    27   15   25 1  
    28   15   26 1  
@<TRIPOS>SUBSTRUCTURE
     1 ANC         1

