### 
### Created by X-TOOL on Mon Sep 10 21:12:50 2018
### 

@<TRIPOS>MOLECULE
1gt3_ligand
   33    32     1     0     0
SMALL
GAST_HUCK


@<TRIPOS>ATOM
      1 C7         -0.7240   -2.6430    9.7040 C.3       1 DHM        -0.0650
      2 C6         -0.4720   -1.8490    8.5330 C.3       1 DHM        -0.0533
      3 C5          0.2670   -2.3320    7.3310 C.3       1 DHM        -0.0441
      4 C4          0.3680   -1.2400    6.2810 C.3       1 DHM        -0.0504
      5 C3         -0.9000   -1.0280    5.5050 C.3       1 DHM        -0.0502
      6 C2         -0.8590    0.3050    4.8190 C.3       1 DHM        -0.0245
      7 C1         -1.8940    0.4780    3.7070 C.3       1 DHM         0.0605
      8 C8         -1.2740    1.1300    2.5510 C.3       1 DHM        -0.0363
      9 C9         -2.9800    1.3770    4.2100 C.3       1 DHM        -0.0363
     10 C10         1.6520   -2.7400    7.7470 C.3       1 DHM        -0.0624
     11 O1         -2.5570   -0.7850    3.1920 O.3       1 DHM        -0.3891
     12 H1         -1.2865   -2.0465   10.4373 H         1 DHM         0.0230
     13 H2          0.2326   -2.9595   10.1453 H         1 DHM         0.0230
     14 H3         -1.3110   -3.5307    9.4258 H         1 DHM         0.0230
     15 H4          0.0819   -0.9669    8.8867 H         1 DHM         0.0265
     16 H5         -1.4617   -1.5381    8.1672 H         1 DHM         0.0265
     17 H6         -0.2609   -3.1973    6.9038 H         1 DHM         0.0298
     18 H7          1.1662   -1.5108    5.5742 H         1 DHM         0.0268
     19 H8          0.6284   -0.2973    6.7846 H         1 DHM         0.0268
     20 H9         -1.7583   -1.0587    6.1923 H         1 DHM         0.0266
     21 H10        -1.0046   -1.8231    4.7521 H         1 DHM         0.0266
     22 H11         0.1414    0.4351    4.3804 H         1 DHM         0.0293
     23 H12        -1.0326    1.0856    5.5743 H         1 DHM         0.0293
     24 H13        -2.0223    1.2522    1.7540 H         1 DHM         0.0257
     25 H14        -0.4434    0.5102    2.1822 H         1 DHM         0.0257
     26 H15        -0.8908    2.1172    2.8486 H         1 DHM         0.0257
     27 H16        -3.4660    0.9131    5.0810 H         1 DHM         0.0257
     28 H17        -3.7241    1.5334    3.4151 H         1 DHM         0.0257
     29 H18        -2.5480    2.3451    4.5036 H         1 DHM         0.0257
     30 H19         1.5880   -3.5315    8.5082 H         1 DHM         0.0232
     31 H20         2.1802   -1.8706    8.1656 H         1 DHM         0.0232
     32 H21         2.2017   -3.1166    6.8718 H         1 DHM         0.0232
     33 H22        -2.9733   -1.2401    3.9146 H         1 DHM         0.2101
@<TRIPOS>BOND
     1    1    2 1  
     2    2    3 1  
     3    3    4 1  
     4    3   10 1  
     5    4    5 1  
     6    5    6 1  
     7    6    7 1  
     8    7    8 1  
     9    7    9 1  
    10    7   11 1  
    11    1   12 1  
    12    1   13 1  
    13    1   14 1  
    14    2   15 1  
    15    2   16 1  
    16    3   17 1  
    17    4   18 1  
    18    4   19 1  
    19    5   20 1  
    20    5   21 1  
    21    6   22 1  
    22    6   23 1  
    23    8   24 1  
    24    8   25 1  
    25    8   26 1  
    26    9   27 1  
    27    9   28 1  
    28    9   29 1  
    29   10   30 1  
    30   10   31 1  
    31   10   32 1  
    32   11   33 1  
@<TRIPOS>SUBSTRUCTURE
     1 DHM         1

