### 
### Created by X-TOOL on Mon Sep 10 21:12:50 2018
### 

@<TRIPOS>MOLECULE
1gt4_ligand
   34    33     1     0     0
SMALL
GAST_HUCK


@<TRIPOS>ATOM
      1 C11         0.3270   -0.6110    4.0530 C.3       1 UNA        -0.0653
      2 C10         0.7400    0.7480    4.0240 C.3       1 UNA        -0.0559
      3 C9         -0.4410    1.4870    3.4850 C.3       1 UNA        -0.0533
      4 C8         -1.2870    0.9060    2.3390 C.3       1 UNA        -0.0531
      5 C7         -2.0830   -0.3720    2.4620 C.3       1 UNA        -0.0531
      6 C6         -3.3270   -0.4150    3.3690 C.3       1 UNA        -0.0531
      7 C5         -3.0150   -0.7000    4.8570 C.3       1 UNA        -0.0529
      8 C4         -1.7760   -0.1000    5.6070 C.3       1 UNA        -0.0509
      9 C3         -1.8700   -0.1860    7.0830 C.3       1 UNA        -0.0373
     10 C2         -0.4990   -0.4690    7.5560 C.3       1 UNA         0.0189
     11 C1         -0.1480   -1.8300    7.4530 C.2       1 UNA         0.0991
     12 O1         -0.4070   -2.5440    8.4170 O.2       1 UNA        -0.3749
     13 H1          1.1455   -1.2347    4.4416 H         1 UNA         0.0230
     14 H2          0.0688   -0.9376    3.0348 H         1 UNA         0.0230
     15 H3         -0.5530   -0.7130    4.7051 H         1 UNA         0.0230
     16 H4          1.6118    0.8754    3.3655 H         1 UNA         0.0263
     17 H5          0.9901    1.1000    5.0357 H         1 UNA         0.0263
     18 H6         -0.0669    2.4602    3.1344 H         1 UNA         0.0265
     19 H7         -1.1261    1.6408    4.3317 H         1 UNA         0.0265
     20 H8         -0.5923    0.7492    1.5006 H         1 UNA         0.0265
     21 H9         -2.0125    1.6888    2.0727 H         1 UNA         0.0265
     22 H10        -1.3918   -1.1432    2.8328 H         1 UNA         0.0265
     23 H11        -2.4186   -0.6370    1.4485 H         1 UNA         0.0265
     24 H12        -3.9969   -1.2053    2.9992 H         1 UNA         0.0265
     25 H13        -3.8362    0.5578    3.3032 H         1 UNA         0.0265
     26 H14        -2.9182   -1.7925    4.9410 H         1 UNA         0.0265
     27 H15        -3.8990   -0.3658    5.4199 H         1 UNA         0.0265
     28 H16        -1.6810    0.9595    5.3269 H         1 UNA         0.0267
     29 H17        -0.8775   -0.6466    5.2845 H         1 UNA         0.0267
     30 H18        -2.5521   -0.9973    7.3771 H         1 UNA         0.0290
     31 H19        -2.2307    0.7657    7.5003 H         1 UNA         0.0290
     32 H20        -0.4234   -0.1670    8.6110 H         1 UNA         0.0493
     33 H21         0.2077    0.1212    6.9541 H         1 UNA         0.0493
     34 H22         0.3305   -2.2293    6.5600 H         1 UNA         0.1348
@<TRIPOS>BOND
     1    1    2 1  
     2    2    3 1  
     3    3    4 1  
     4    4    5 1  
     5    5    6 1  
     6    6    7 1  
     7    7    8 1  
     8    8    9 1  
     9    9   10 1  
    10   10   11 1  
    11   11   12 2  
    12    1   13 1  
    13    1   14 1  
    14    1   15 1  
    15    2   16 1  
    16    2   17 1  
    17    3   18 1  
    18    3   19 1  
    19    4   20 1  
    20    4   21 1  
    21    5   22 1  
    22    5   23 1  
    23    6   24 1  
    24    6   25 1  
    25    7   26 1  
    26    7   27 1  
    27    8   28 1  
    28    8   29 1  
    29    9   30 1  
    30    9   31 1  
    31   10   32 1  
    32   10   33 1  
    33   11   34 1  
@<TRIPOS>SUBSTRUCTURE
     1 UNA         1

