### 
### Created by X-TOOL on Mon Sep 10 21:12:50 2018
### 

@<TRIPOS>MOLECULE
1gt5_ligand
   26    27     1     0     0
SMALL
GAST_HUCK


@<TRIPOS>ATOM
      1 C1         -0.1140    0.5560    2.9820 C.ar      1 BZQ        -0.0681
      2 C2         -1.5400    0.3940    2.8730 C.ar      1 BZQ        -0.0685
      3 C3         -2.2670   -0.1870    3.9430 C.ar      1 BZQ        -0.0681
      4 C4         -1.5650   -0.6050    5.1190 C.ar      1 BZQ        -0.0559
      5 C5         -0.1380   -0.4520    5.2400 C.ar      1 BZQ        -0.0035
      6 C6          0.5570    0.1360    4.1510 C.ar      1 BZQ        -0.0559
      7 C7          0.6590   -0.8800    6.4570 C.3       1 BZQ         0.1223
      8 C8         -1.0690   -1.0880    8.3280 C.ar      1 BZQ        -0.0559
      9 C9          0.1280   -1.5230    7.7300 C.ar      1 BZQ        -0.0035
     10 C10         0.8500   -2.5770    8.3550 C.ar      1 BZQ        -0.0559
     11 C11         0.3750   -3.1650    9.5360 C.ar      1 BZQ        -0.0681
     12 C12        -0.8180   -2.7200   10.1140 C.ar      1 BZQ        -0.0685
     13 C13        -1.5510   -1.6710    9.5060 C.ar      1 BZQ        -0.0681
     14 O           2.0550   -0.6750    6.4300 O.3       1 BZQ        -0.3671
     15 H1          0.4448    1.0005    2.1664 H         1 BZQ         0.0600
     16 H2         -2.0567    0.7151    1.9758 H         1 BZQ         0.0561
     17 H3         -3.3413   -0.3132    3.8715 H         1 BZQ         0.0600
     18 H4         -2.1209   -1.0472    5.9378 H         1 BZQ         0.0561
     19 H5          1.6311    0.2660    4.2187 H         1 BZQ         0.0561
     20 H6          0.4892    0.1139    6.8967 H         1 BZQ         0.0918
     21 H7         -1.6304   -0.2837    7.8664 H         1 BZQ         0.0561
     22 H8          1.7758   -2.9289    7.9144 H         1 BZQ         0.0561
     23 H9          0.9347   -3.9675   10.0027 H         1 BZQ         0.0600
     24 H10        -1.1819   -3.1775   11.0269 H         1 BZQ         0.0561
     25 H11        -2.4770   -1.3228    9.9491 H         1 BZQ         0.0600
     26 H12         2.2989   -0.2721    5.6050 H         1 BZQ         0.2161
@<TRIPOS>BOND
     1    1    2 ar 
     2    1    6 ar 
     3    2    3 ar 
     4    3    4 ar 
     5    4    5 ar 
     6    5    6 ar 
     7    5    7 1  
     8    7    9 1  
     9    7   14 1  
    10    9   10 ar 
    11   10   11 ar 
    12   11   12 ar 
    13   12   13 ar 
    14   13    8 ar 
    15    9    8 ar 
    16    1   15 1  
    17    2   16 1  
    18    3   17 1  
    19    4   18 1  
    20    6   19 1  
    21    7   20 1  
    22    8   21 1  
    23   10   22 1  
    24   11   23 1  
    25   12   24 1  
    26   13   25 1  
    27   14   26 1  
@<TRIPOS>SUBSTRUCTURE
     1 BZQ         1

