### 
### Created by X-TOOL on Fri Sep 26 17:34:20 2014
### 

@<TRIPOS>MOLECULE
1gu1_ligand
   21    21     1     0     0
SMALL
GAST_HUCK


@<TRIPOS>ATOM
      1 C2         28.6300   50.9780   58.6370 C.3       1 FA1        -0.0257
      2 C3         27.8860   49.7450   58.5610 C.3       1 FA1         0.0989
      3 O3         28.4970   48.8030   57.7520 O.3       1 FA1        -0.3849
      4 C4         27.7740   49.1790   59.8430 C.3       1 FA1         0.1558
      5 O4         26.8960   48.1190   59.9030 O.3       1 FA1        -0.3559
      6 C5         27.4170   50.1340   60.8480 C.2       1 FA1         0.0179
      7 C6         27.5280   51.5480   60.6290 C.2       1 FA1        -0.0502
      8 C          28.8440   53.1510   59.6440 C.2       1 FA1         0.0192
      9 O1         30.0840   53.2610   59.1970 O.co2     1 FA1        -0.5675
     10 O30        26.9640   52.5050   58.6850 O.3       1 FA1        -0.4422
     11 O2         28.4370   54.2040   60.3050 O.co2     1 FA1        -0.5675
     12 C1         28.0270   52.0020   59.4010 C.3       1 FA1         0.0728
     13 H1         28.7682   51.3550   57.6129 H         1 FA1         0.0171
     14 H2         29.6113   50.7557   59.0815 H         1 FA1         0.0171
     15 H3         26.8838   49.9643   58.1641 H         1 FA1         0.0667
     16 H4         27.9703   48.0125   57.7349 H         1 FA1         0.2104
     17 H5         28.7708   48.7909   60.0994 H         1 FA1         0.1059
     18 H6         27.1884   47.4333   59.3141 H         1 FA1         0.2180
     19 H7         27.0497   49.7763   61.8088 H         1 FA1         0.1561
     20 H8         27.2301   52.2545   61.4024 H         1 FA1         0.0503
     21 H9         26.5680   53.2204   59.1686 H         1 FA1         0.1879
@<TRIPOS>BOND
     1    1    2 1  
     2   12    1 1  
     3    2    3 1  
     4    2    4 1  
     5    4    5 1  
     6    6    4 1  
     7    7    6 2  
     8   12    7 1  
     9    8    9 ar 
    10    8   11 ar 
    11    8   12 1  
    12   12   10 1  
    13    1   13 1  
    14    1   14 1  
    15    2   15 1  
    16    3   16 1  
    17    4   17 1  
    18    5   18 1  
    19    6   19 1  
    20    7   20 1  
    21   10   21 1  
@<TRIPOS>SUBSTRUCTURE
     1 FA1         1

