### 
### Created by X-TOOL on Sun Sep  9 21:50:03 2018
### 

@<TRIPOS>MOLECULE
1gu3_ligand
  108   112     1     0     0
SMALL
GAST_HUCK


@<TRIPOS>ATOM
      1 C2        -10.9960   33.3410   27.0270 C.3       1 NON         0.1339
      2 C3        -12.0380   32.5920   26.1870 C.3       1 NON         0.1144
      3 C4        -11.4940   31.2460   25.6530 C.3       1 NON         0.1184
      4 C5        -10.7080   30.4530   26.7180 C.3       1 NON         0.1134
      5 C6         -9.9570   29.2910   26.0640 C.3       1 NON         0.0730
      6 C1        -10.4670   32.3720   28.0840 C.3       1 NON         0.1854
      7 O1         -9.5620   33.0310   28.9450 O.3       1 NON        -0.3649
      8 O2        -11.6040   34.4340   27.6620 O.3       1 NON        -0.3841
      9 O3        -12.5950   33.3870   25.1410 O.3       1 NON        -0.3864
     10 O4        -12.5660   30.4710   25.1490 O.3       1 NON        -0.3401
     11 O5         -9.8080   31.2900   27.4520 O.3       1 NON        -0.3407
     12 O6         -9.9680   28.1570   26.8950 O.3       1 NON        -0.3924
     13 C2        -13.3270   29.1170   23.2060 C.3       1 NON         0.1341
     14 C3        -13.5360   29.0460   21.6800 C.3       1 NON         0.1144
     15 C4        -13.9470   30.3870   21.0950 C.3       1 NON         0.1184
     16 C5        -12.9580   31.4230   21.6270 C.3       1 NON         0.1134
     17 C6        -13.2620   32.8240   21.0840 C.3       1 NON         0.0730
     18 C1        -12.4910   30.3070   23.6880 C.3       1 NON         0.1884
     19 O2        -12.7300   27.9100   23.6160 O.3       1 NON        -0.3841
     20 O3        -14.6080   28.1790   21.4200 O.3       1 NON        -0.3864
     21 O4        -13.8420   30.3240   19.6900 O.3       1 NON        -0.3401
     22 O5        -13.0000   31.4330   23.0500 O.3       1 NON        -0.3405
     23 O6        -14.4770   33.3490   21.6200 O.3       1 NON        -0.3924
     24 C2        -15.0420   30.5070   17.6190 C.3       1 NON         0.1341
     25 C3        -16.3110   30.0590   16.9010 C.3       1 NON         0.1144
     26 C4        -16.5480   28.5510   17.0020 C.3       1 NON         0.1184
     27 C5        -16.3860   28.0520   18.4250 C.3       1 NON         0.1134
     28 C6        -16.5820   26.5340   18.4690 C.3       1 NON         0.0730
     29 C1        -15.0030   29.8550   18.9980 C.3       1 NON         0.1884
     30 O2        -14.9790   31.9060   17.7410 O.3       1 NON        -0.3841
     31 O3        -16.1750   30.3290   15.5310 O.3       1 NON        -0.3864
     32 O4        -17.8490   28.2170   16.6030 O.3       1 NON        -0.3401
     33 O5        -15.0750   28.4420   18.8540 O.3       1 NON        -0.3405
     34 O6        -15.7150   25.9250   17.5310 O.3       1 NON        -0.3924
     35 C2        -19.5640   27.3320   15.1450 C.3       1 NON         0.1341
     36 C3        -19.8570   26.7400   13.7590 C.3       1 NON         0.1144
     37 C4        -19.1330   27.5110   12.6330 C.3       1 NON         0.1184
     38 C5        -17.6540   27.6530   13.0130 C.3       1 NON         0.1134
     39 C6        -16.8880   28.4880   11.9980 C.3       1 NON         0.0730
     40 C1        -18.0590   27.5650   15.3340 C.3       1 NON         0.1884
     41 O2        -20.0690   26.4240   16.0940 O.3       1 NON        -0.3841
     42 O3        -21.2630   26.6550   13.5890 O.3       1 NON        -0.3864
     43 O4        -19.2400   26.7780   11.4220 O.3       1 NON        -0.3401
     44 O5        -17.5660   28.3120   14.2560 O.3       1 NON        -0.3405
     45 O6        -17.5820   29.7320   11.8350 O.3       1 NON        -0.3924
     46 C2        -19.3360   26.6400    9.1150 C.3       1 NON         0.1341
     47 C3        -19.7200   27.3990    7.8430 C.3       1 NON         0.1141
     48 C4        -21.1550   27.9760    7.9630 C.3       1 NON         0.1119
     49 C5        -21.4030   28.7540    9.2680 C.3       1 NON         0.1130
     50 C6        -22.8760   28.9970    9.5430 C.3       1 NON         0.0730
     51 C1        -19.6090   27.5500   10.2910 C.3       1 NON         0.1884
     52 O2        -17.9830   26.2070    9.1510 O.3       1 NON        -0.3841
     53 O3        -19.5360   26.5260    6.7280 O.3       1 NON        -0.3864
     54 O4        -21.4030   28.6920    6.7960 O.3       1 NON        -0.3865
     55 O5        -20.9680   27.9110   10.3330 O.3       1 NON        -0.3405
     56 O6        -23.6220   27.7990    9.4610 O.3       1 NON        -0.3924
     57 H1        -10.1731   33.6914   26.3867 H         1 NON         0.0671
     58 H2        -12.8673   32.3489   26.8676 H         1 NON         0.0648
     59 H3        -10.8053   31.4651   24.8238 H         1 NON         0.0651
     60 H4        -11.4334   30.0337   27.4307 H         1 NON         0.0647
     61 H5         -8.9154   29.5930   25.8803 H         1 NON         0.0584
     62 H6        -10.4406   29.0418   25.1080 H         1 NON         0.0584
     63 H7        -11.3119   31.9877   28.6743 H         1 NON         0.0935
     64 H8         -9.2501   32.4201   29.6023 H         1 NON         0.2126
     65 H9        -10.9654   34.8767   28.2085 H         1 NON         0.2101
     66 H10       -13.3111   32.9147   24.7329 H         1 NON         0.2100
     67 H11        -9.4973   27.4498   26.4700 H         1 NON         0.2095
     68 H12       -14.3175   29.1996   23.6772 H         1 NON         0.0671
     69 H13       -12.6147   28.6879   21.1974 H         1 NON         0.0648
     70 H14       -14.9753   30.6430   21.3899 H         1 NON         0.0651
     71 H15       -11.9460   31.1375   21.3040 H         1 NON         0.0647
     72 H16       -13.3502   32.7699   19.9889 H         1 NON         0.0584
     73 H17       -12.4345   33.4971   21.3524 H         1 NON         0.0584
     74 H18       -11.4395   30.1584   23.4011 H         1 NON         0.0938
     75 H19       -13.2554   27.1790   23.3125 H         1 NON         0.2101
     76 H20       -14.7466   28.1210   20.4820 H         1 NON         0.2100
     77 H21       -14.6316   34.2152   21.2619 H         1 NON         0.2095
     78 H22       -14.1707   30.1696   17.0386 H         1 NON         0.0671
     79 H23       -17.1727   30.6003   17.3187 H         1 NON         0.0648
     80 H24       -15.8228   28.0397   16.3519 H         1 NON         0.0651
     81 H25       -17.1377   28.5247   19.0743 H         1 NON         0.0647
     82 H26       -17.6249   26.2903   18.2180 H         1 NON         0.0584
     83 H27       -16.3513   26.1624   19.4783 H         1 NON         0.0584
     84 H28       -15.8869   30.1770   19.5681 H         1 NON         0.0938
     85 H29       -14.1708   32.1486   18.1773 H         1 NON         0.2101
     86 H30       -16.9697   30.0720   15.0783 H         1 NON         0.2100
     87 H31       -14.8151   26.1371   17.7491 H         1 NON         0.2095
     88 H32       -20.0838   28.2957   15.2498 H         1 NON         0.0671
     89 H33       -19.4623   25.7134   13.7430 H         1 NON         0.0648
     90 H34       -19.5853   28.5058   12.5077 H         1 NON         0.0651
     91 H35       -17.2004   26.6533   13.0826 H         1 NON         0.0647
     92 H36       -16.8424   27.9570   11.0358 H         1 NON         0.0584
     93 H37       -15.8671   28.6749   12.3624 H         1 NON         0.0584
     94 H38       -17.5417   26.5944   15.3495 H         1 NON         0.0938
     95 H39       -21.0001   26.3022   15.9499 H         1 NON         0.2101
     96 H40       -21.4558   26.2076   12.7735 H         1 NON         0.2100
     97 H41       -17.1198   30.2708   11.2037 H         1 NON         0.2095
     98 H42       -19.9770   25.7493    9.1910 H         1 NON         0.0671
     99 H43       -19.0327   28.2493    7.7223 H         1 NON         0.0648
    100 H44       -21.8535   27.1264    7.9797 H         1 NON         0.0647
    101 H45       -20.8530   29.7065    9.2507 H         1 NON         0.0647
    102 H46       -23.2648   29.7117    8.8028 H         1 NON         0.0584
    103 H47       -22.9865   29.4186   10.5530 H         1 NON         0.0584
    104 H48       -18.9943   28.4601   10.2289 H         1 NON         0.0938
    105 H49       -17.8243   25.7346    9.9598 H         1 NON         0.2101
    106 H50       -19.7168   26.9986    5.9240 H         1 NON         0.2100
    107 H51       -20.8398   29.4566    6.7692 H         1 NON         0.2100
    108 H52       -23.2941   27.1786   10.1013 H         1 NON         0.2095
@<TRIPOS>BOND
     1    2    1 1  
     2    1    6 1  
     3    1    8 1  
     4    3    2 1  
     5    2    9 1  
     6    3    4 1  
     7   10    3 1  
     8    4    5 1  
     9    4   11 1  
    10    5   12 1  
    11    6    7 1  
    12   11    6 1  
    13   18   10 1  
    14   14   13 1  
    15   13   18 1  
    16   13   19 1  
    17   15   14 1  
    18   14   20 1  
    19   15   16 1  
    20   21   15 1  
    21   16   17 1  
    22   16   22 1  
    23   17   23 1  
    24   22   18 1  
    25   29   21 1  
    26   25   24 1  
    27   24   29 1  
    28   24   30 1  
    29   26   25 1  
    30   25   31 1  
    31   26   27 1  
    32   32   26 1  
    33   27   28 1  
    34   27   33 1  
    35   28   34 1  
    36   33   29 1  
    37   40   32 1  
    38   36   35 1  
    39   35   40 1  
    40   35   41 1  
    41   37   36 1  
    42   36   42 1  
    43   37   38 1  
    44   43   37 1  
    45   38   39 1  
    46   38   44 1  
    47   39   45 1  
    48   44   40 1  
    49   51   43 1  
    50   46   47 1  
    51   46   51 1  
    52   46   52 1  
    53   47   48 1  
    54   47   53 1  
    55   48   49 1  
    56   48   54 1  
    57   49   50 1  
    58   49   55 1  
    59   50   56 1  
    60   51   55 1  
    61    1   57 1  
    62    2   58 1  
    63    3   59 1  
    64    4   60 1  
    65    5   61 1  
    66    5   62 1  
    67    6   63 1  
    68    7   64 1  
    69    8   65 1  
    70    9   66 1  
    71   12   67 1  
    72   13   68 1  
    73   14   69 1  
    74   15   70 1  
    75   16   71 1  
    76   17   72 1  
    77   17   73 1  
    78   18   74 1  
    79   19   75 1  
    80   20   76 1  
    81   23   77 1  
    82   24   78 1  
    83   25   79 1  
    84   26   80 1  
    85   27   81 1  
    86   28   82 1  
    87   28   83 1  
    88   29   84 1  
    89   30   85 1  
    90   31   86 1  
    91   34   87 1  
    92   35   88 1  
    93   36   89 1  
    94   37   90 1  
    95   38   91 1  
    96   39   92 1  
    97   39   93 1  
    98   40   94 1  
    99   41   95 1  
   100   42   96 1  
   101   45   97 1  
   102   46   98 1  
   103   47   99 1  
   104   48  100 1  
   105   49  101 1  
   106   50  102 1  
   107   50  103 1  
   108   51  104 1  
   109   52  105 1  
   110   53  106 1  
   111   54  107 1  
   112   56  108 1  
@<TRIPOS>SUBSTRUCTURE
     1 NON         1

