### 
### Created by X-TOOL on Sun Sep  9 21:50:03 2018
### 

@<TRIPOS>MOLECULE
1gui_ligand
  129   134     1     0     0
SMALL
GAST_HUCK


@<TRIPOS>ATOM
      1 C2         59.2470   27.2410    4.7390 C.3       1 NON         0.1341
      2 C3         60.6670   27.4420    5.2820 C.3       1 NON         0.1141
      3 C4         60.6940   28.4990    6.3920 C.3       1 NON         0.1119
      4 C5         59.5160   28.3440    7.3980 C.3       1 NON         0.1130
      5 C6         59.5260   29.5110    8.3830 C.3       1 NON         0.0730
      6 C1         58.1860   27.1070    5.8610 C.3       1 NON         0.1884
      7 O2         59.2660   26.0600    3.9760 O.3       1 NON        -0.3841
      8 O3         61.5810   27.8280    4.2730 O.3       1 NON        -0.3864
      9 O4         62.0050   28.5320    6.9880 O.3       1 NON        -0.3865
     10 O5         58.2110   28.1850    6.7920 O.3       1 NON        -0.3405
     11 O6         58.4790   30.3900    8.0580 O.3       1 NON        -0.3924
     12 C2         55.2760   25.3590    6.3900 C.3       1 NON         0.1345
     13 C3         55.3160   26.8770    6.3570 C.3       1 NON         0.1206
     14 C4         54.0930   27.5050    5.6590 C.3       1 NON         0.1123
     15 C5         52.7370   26.7990    5.8160 C.3       1 NON         0.1130
     16 C6         51.7470   27.2410    4.7400 C.3       1 NON         0.0730
     17 C1         53.8180   24.9700    6.7240 C.3       1 NON         0.1884
     18 O2         56.1810   24.8790    7.3640 O.3       1 NON        -0.3841
     19 O3         56.4950   27.2700    5.6820 O.3       1 NON        -0.3401
     20 O4         53.8410   28.8000    6.1580 O.3       1 NON        -0.3865
     21 O5         52.8760   25.4040    5.7610 O.3       1 NON        -0.3405
     22 O6         50.9940   26.1150    4.3490 O.3       1 NON        -0.3924
     23 C2         53.3500   21.3270    7.3100 C.3       1 NON         0.1345
     24 C3         52.5420   22.6000    7.1030 C.3       1 NON         0.1206
     25 C4         51.4050   22.3970    6.1850 C.3       1 NON         0.1123
     26 C5         50.5090   21.3680    6.8600 C.3       1 NON         0.1130
     27 C6         49.1170   21.1530    6.2150 C.3       1 NON         0.0730
     28 C1         52.2950   20.3910    7.8790 C.3       1 NON         0.1884
     29 O2         54.4660   21.4990    8.1590 O.3       1 NON        -0.3841
     30 O3         53.4810   23.3400    6.3830 O.3       1 NON        -0.3401
     31 O4         50.6730   23.5990    6.0530 O.3       1 NON        -0.3865
     32 O5         51.2830   20.1930    6.9170 O.3       1 NON        -0.3405
     33 O6         48.3720   20.2540    7.0080 O.3       1 NON        -0.3924
     34 C2         54.4280   18.2010    9.5930 C.3       1 NON         0.1345
     35 C3         52.9730   18.3400    9.2200 C.3       1 NON         0.1206
     36 C4         52.2300   17.0510    9.0630 C.3       1 NON         0.1123
     37 C5         52.4400   16.1840   10.3220 C.3       1 NON         0.1130
     38 C6         51.8300   14.7960   10.1400 C.3       1 NON         0.0730
     39 C1         54.4510   17.3050   10.8390 C.3       1 NON         0.1884
     40 O2         55.0110   19.4950    9.8350 O.3       1 NON        -0.3841
     41 O3         53.0120   18.9240    7.9590 O.3       1 NON        -0.3401
     42 O4         50.8780   17.3310    8.7950 O.3       1 NON        -0.3865
     43 O5         53.8390   16.0610   10.5620 O.3       1 NON        -0.3405
     44 O6         51.8960   14.0510   11.3520 O.3       1 NON        -0.3924
     45 C2         56.9620   17.0240   13.2170 C.3       1 NON         0.1345
     46 C3         56.1040   16.1990   12.3000 C.3       1 NON         0.1206
     47 C4         56.8780   14.9650   11.8470 C.3       1 NON         0.1123
     48 C5         57.4590   14.2110   13.0480 C.3       1 NON         0.1130
     49 C6         58.5080   13.2220   12.5320 C.3       1 NON         0.0730
     50 C1         57.2520   16.1270   14.4250 C.3       1 NON         0.1884
     51 O2         56.3240   18.2160   13.5980 O.3       1 NON        -0.3841
     52 O3         55.8390   16.9950   11.1590 O.3       1 NON        -0.3401
     53 O4         55.9700   14.1370   11.1660 O.3       1 NON        -0.3865
     54 O5         58.0940   15.1050   13.9380 O.3       1 NON        -0.3405
     55 O6         58.1400   11.9870   13.0800 O.3       1 NON        -0.3924
     56 C2         60.4240   16.7210   16.4330 C.3       1 NON         0.1343
     57 C3         58.9610   17.1150   16.3300 C.3       1 NON         0.1206
     58 C4         58.1820   16.4610   17.4680 C.3       1 NON         0.1123
     59 C5         58.8500   16.9240   18.7680 C.3       1 NON         0.1130
     60 C6         58.2940   16.2120   19.9940 C.3       1 NON         0.0730
     61 C1         60.9570   17.2830   17.7340 C.3       1 NON         0.1854
     62 O1         62.3290   16.9620   17.8300 O.3       1 NON        -0.3649
     63 O2         61.1450   17.1730   15.3070 O.3       1 NON        -0.3841
     64 O3         58.4950   16.8060   15.0350 O.3       1 NON        -0.3401
     65 O4         56.8510   16.9200   17.3680 O.3       1 NON        -0.3865
     66 O5         60.2390   16.6160   18.7490 O.3       1 NON        -0.3407
     67 O6         58.1720   17.1100   21.0800 O.3       1 NON        -0.3924
     68 H1         58.9796   28.0958    4.1004 H         1 NON         0.0671
     69 H2         61.0033   26.4835    5.7040 H         1 NON         0.0648
     70 H3         60.5476   29.4757    5.9076 H         1 NON         0.0647
     71 H4         59.7075   27.4249    7.9713 H         1 NON         0.0647
     72 H5         60.4873   30.0415    8.3172 H         1 NON         0.0584
     73 H6         59.3857   29.1319    9.4060 H         1 NON         0.0584
     74 H7         58.4026   26.1425    6.3435 H         1 NON         0.0938
     75 H8         59.9156   26.1396    3.2875 H         1 NON         0.2101
     76 H9         62.4537   27.8877    4.6438 H         1 NON         0.2100
     77 H10        62.6594   28.6281    6.3060 H         1 NON         0.2100
     78 H11        57.6505   29.9285    8.1145 H         1 NON         0.2095
     79 H12        55.5545   24.9505    5.4074 H         1 NON         0.0671
     80 H13        55.3494   27.2477    7.3921 H         1 NON         0.0651
     81 H14        54.3314   27.5600    4.5866 H         1 NON         0.0647
     82 H15        52.3257   27.0696    6.7997 H         1 NON         0.0647
     83 H16        52.2927   27.6437    3.8739 H         1 NON         0.0584
     84 H17        51.0779   28.0150    5.1441 H         1 NON         0.0584
     85 H18        53.5765   25.2744    7.7531 H         1 NON         0.0938
     86 H19        56.1258   23.9315    7.4063 H         1 NON         0.2101
     87 H20        54.6341   29.3199    6.1014 H         1 NON         0.2100
     88 H21        51.5776   25.4494    4.0042 H         1 NON         0.2095
     89 H22        53.7153   20.9470    6.3445 H         1 NON         0.0671
     90 H23        52.2238   23.0653    8.0476 H         1 NON         0.0651
     91 H24        51.7497   22.0451    5.2015 H         1 NON         0.0647
     92 H25        50.3213   21.7092    7.8888 H         1 NON         0.0647
     93 H26        49.2401   20.7369    5.2042 H         1 NON         0.0584
     94 H27        48.5874   22.1151    6.1535 H         1 NON         0.0584
     95 H28        51.9025   20.7425    8.8446 H         1 NON         0.0938
     96 H29        55.0857   22.0912    7.7495 H         1 NON         0.2101
     97 H30        51.2167   24.2550    5.6328 H         1 NON         0.2100
     98 H31        48.8313   19.4241    7.0604 H         1 NON         0.2095
     99 H32        54.9811   17.7129    8.7770 H         1 NON         0.0671
    100 H33        52.4548   18.9771    9.9519 H         1 NON         0.0651
    101 H34        52.6423   16.5050    8.2017 H         1 NON         0.0647
    102 H35        51.9621   16.6751   11.1825 H         1 NON         0.0647
    103 H36        52.3838   14.2588    9.3560 H         1 NON         0.0584
    104 H37        50.7774   14.9015    9.8386 H         1 NON         0.0584
    105 H38        53.9512   17.8085   11.6797 H         1 NON         0.0938
    106 H39        54.9742   20.0116    9.0386 H         1 NON         0.2101
    107 H40        50.4073   16.5165    8.6623 H         1 NON         0.2100
    108 H41        52.8040   13.9548   11.6143 H         1 NON         0.2095
    109 H42        57.9044   17.2801   12.7108 H         1 NON         0.0671
    110 H43        55.1701   15.9047   12.8012 H         1 NON         0.0651
    111 H44        57.6956   15.2634   11.1743 H         1 NON         0.0647
    112 H45        56.6555   13.6732   13.5726 H         1 NON         0.0647
    113 H46        59.5132   13.5119   12.8718 H         1 NON         0.0584
    114 H47        58.4908   13.1781   11.4330 H         1 NON         0.0584
    115 H48        56.3951   15.8637   15.0625 H         1 NON         0.0938
    116 H49        56.8822   18.6943   14.1997 H         1 NON         0.2101
    117 H50        55.2666   13.8890   11.7544 H         1 NON         0.2100
    118 H51        58.7552   11.3205   12.7974 H         1 NON         0.2095
    119 H52        60.4989   15.6241   16.4668 H         1 NON         0.0671
    120 H53        58.8804   18.2044   16.4592 H         1 NON         0.0651
    121 H54        58.2115   15.3639   17.3940 H         1 NON         0.0647
    122 H55        58.7047   18.0094   18.8722 H         1 NON         0.0647
    123 H56        58.9735   15.3942   20.2760 H         1 NON         0.0584
    124 H57        57.3032   15.7991   19.7537 H         1 NON         0.0584
    125 H58        60.8098   18.3715   17.7926 H         1 NON         0.0935
    126 H59        62.8074   17.4135   17.1446 H         1 NON         0.2126
    127 H60        60.7721   16.7930   14.5202 H         1 NON         0.2101
    128 H61        56.8426   17.8698   17.3857 H         1 NON         0.2100
    129 H62        57.8243   16.6481   21.8339 H         1 NON         0.2095
@<TRIPOS>BOND
     1    1    2 1  
     2    6    1 1  
     3    1    7 1  
     4    2    3 1  
     5    2    8 1  
     6    4    3 1  
     7    3    9 1  
     8    4    5 1  
     9   10    4 1  
    10    5   11 1  
    11    6   10 1  
    12   19    6 1  
    13   12   13 1  
    14   17   12 1  
    15   12   18 1  
    16   13   14 1  
    17   13   19 1  
    18   15   14 1  
    19   14   20 1  
    20   15   16 1  
    21   21   15 1  
    22   16   22 1  
    23   17   21 1  
    24   30   17 1  
    25   23   24 1  
    26   28   23 1  
    27   23   29 1  
    28   24   25 1  
    29   24   30 1  
    30   26   25 1  
    31   25   31 1  
    32   26   27 1  
    33   32   26 1  
    34   27   33 1  
    35   28   32 1  
    36   41   28 1  
    37   34   35 1  
    38   39   34 1  
    39   34   40 1  
    40   35   36 1  
    41   35   41 1  
    42   37   36 1  
    43   36   42 1  
    44   37   38 1  
    45   43   37 1  
    46   38   44 1  
    47   39   43 1  
    48   52   39 1  
    49   45   46 1  
    50   50   45 1  
    51   45   51 1  
    52   46   47 1  
    53   46   52 1  
    54   48   47 1  
    55   47   53 1  
    56   48   49 1  
    57   54   48 1  
    58   49   55 1  
    59   50   54 1  
    60   64   50 1  
    61   57   56 1  
    62   56   61 1  
    63   56   63 1  
    64   57   58 1  
    65   57   64 1  
    66   58   59 1  
    67   58   65 1  
    68   59   60 1  
    69   59   66 1  
    70   60   67 1  
    71   61   62 1  
    72   61   66 1  
    73    1   68 1  
    74    2   69 1  
    75    3   70 1  
    76    4   71 1  
    77    5   72 1  
    78    5   73 1  
    79    6   74 1  
    80    7   75 1  
    81    8   76 1  
    82    9   77 1  
    83   11   78 1  
    84   12   79 1  
    85   13   80 1  
    86   14   81 1  
    87   15   82 1  
    88   16   83 1  
    89   16   84 1  
    90   17   85 1  
    91   18   86 1  
    92   20   87 1  
    93   22   88 1  
    94   23   89 1  
    95   24   90 1  
    96   25   91 1  
    97   26   92 1  
    98   27   93 1  
    99   27   94 1  
   100   28   95 1  
   101   29   96 1  
   102   31   97 1  
   103   33   98 1  
   104   34   99 1  
   105   35  100 1  
   106   36  101 1  
   107   37  102 1  
   108   38  103 1  
   109   38  104 1  
   110   39  105 1  
   111   40  106 1  
   112   42  107 1  
   113   44  108 1  
   114   45  109 1  
   115   46  110 1  
   116   47  111 1  
   117   48  112 1  
   118   49  113 1  
   119   49  114 1  
   120   50  115 1  
   121   51  116 1  
   122   53  117 1  
   123   55  118 1  
   124   56  119 1  
   125   57  120 1  
   126   58  121 1  
   127   59  122 1  
   128   60  123 1  
   129   60  124 1  
   130   61  125 1  
   131   62  126 1  
   132   63  127 1  
   133   65  128 1  
   134   67  129 1  
@<TRIPOS>SUBSTRUCTURE
     1 NON         1

