### 
### Created by X-TOOL on Mon Sep 10 21:12:48 2018
### 

@<TRIPOS>MOLECULE
1gvk_ligand
   54    54     1     0     0
SMALL
GAST_HUCK


@<TRIPOS>ATOM
      1 C         -15.7400   18.0620   39.5140 C.2       1 ACE         0.1752
      2 O         -15.1830   16.9770   39.3860 O.2       1 ACE        -0.3972
      3 CH3       -16.7630   18.3670   40.5840 C.3       1 ACE         0.0258
      4 H1        -17.1054   19.4070   40.4781 H         1 ACE         0.0467
      5 H2        -16.3080   18.2300   41.5761 H         1 ACE         0.0467
      6 H3        -17.6202   17.6861   40.4765 H         1 ACE         0.0467
      7 N         -15.4010   19.0490   38.6990 N.am      1 ASN        -0.2637
      8 CA        -14.5120   19.1060   37.5420 C.3       1 ASN         0.1477
      9 C         -13.2250   19.8180   37.9480 C.2       1 ASN         0.2087
     10 O         -13.3150   21.0270   38.1900 O.2       1 ASN        -0.3940
     11 CB        -15.0980   19.8710   36.3870 C.3       1 ASN         0.0773
     12 CG        -15.4220   19.2880   35.0340 C.2       1 ASN         0.1780
     13 OD1       -15.8110   20.0290   34.1060 O.2       1 ASN        -0.3970
     14 ND2       -15.2980   17.9820   34.7940 N.am      1 ASN        -0.3007
     15 H4        -15.8370   19.9220   38.9176 H         1 ASN         0.1884
     16 H5        -14.2871   18.0796   37.2167 H         1 ASN         0.0826
     17 H6        -14.3914   20.6908   36.1906 H         1 ASN         0.0551
     18 H7        -16.0457   20.2855   36.7614 H         1 ASN         0.0551
     19 H8        -15.5183   17.6167   33.8895 H         1 ASN         0.1814
     20 H9        -14.9847   17.3680   35.5185 H         1 ASN         0.1814
     21 N         -12.0780   19.1400   38.0010 N.am      1 PRO        -0.2497
     22 CA        -10.8530   19.8750   38.3470 C.3       1 PRO         0.1338
     23 C         -10.5580   20.9860   37.3380 C.2       1 PRO         0.2042
     24 O         -10.7640   20.7610   36.1650 O.2       1 PRO        -0.3944
     25 CB         -9.7990   18.7860   38.2670 C.3       1 PRO        -0.0104
     26 CG        -10.5090   17.4840   38.4880 C.3       1 PRO        -0.0281
     27 CD        -11.7950   17.7110   37.7860 C.3       1 PRO         0.0369
     28 H10       -10.9155   20.3023   39.3587 H         1 PRO         0.0802
     29 H11        -9.0360   18.9387   39.0445 H         1 PRO         0.0313
     30 H12        -9.3201   18.7936   37.2768 H         1 PRO         0.0313
     31 H13       -10.6671   17.2918   39.5595 H         1 PRO         0.0287
     32 H14        -9.9535   16.6453   38.0431 H         1 PRO         0.0287
     33 H15       -11.6977   17.4899   36.7129 H         1 PRO         0.0524
     34 H16       -12.5907   17.0866   38.2184 H         1 PRO         0.0524
     35 N         -10.0880   22.1270   37.8350 N.am      1 ILE        -0.2647
     36 CA         -9.7280   23.2220   36.9440 C.3       1 ILE         0.1153
     37 C          -8.3190   23.8270   37.2100 C.2       1 ILE         0.1247
     38 O          -7.9350   24.6260   36.4130 O.2       1 ILE        -0.3724
     39 CB        -10.6460   24.4330   37.1630 C.3       1 ILE        -0.0050
     40 CG1       -10.9280   24.8730   38.6240 C.3       1 ILE        -0.0490
     41 CG2       -11.9380   24.1280   36.5150 C.3       1 ILE        -0.0581
     42 CD1       -11.2770   26.3810   38.6870 C.3       1 ILE        -0.0648
     43 H17        -9.9814   22.2334   38.8236 H         1 ILE         0.1884
     44 H18        -9.7958   22.8626   35.9066 H         1 ILE         0.0793
     45 H19        -7.7200   23.5379   38.0723 H         1 ILE         0.1373
     46 H20       -10.1807   25.2896   36.6533 H         1 ILE         0.0346
     47 H21       -10.0341   24.6839   39.2365 H         1 ILE         0.0267
     48 H22       -11.7732   24.2905   39.0193 H         1 ILE         0.0267
     49 H23       -11.7617   23.8132   35.4759 H         1 ILE         0.0235
     50 H24       -12.5734   25.0259   36.5233 H         1 ILE         0.0235
     51 H25       -12.4410   23.3178   37.0632 H         1 ILE         0.0235
     52 H26       -11.4724   26.6688   39.7305 H         1 ILE         0.0230
     53 H27       -12.1728   26.5758   38.0791 H         1 ILE         0.0230
     54 H28       -10.4336   26.9692   38.2963 H         1 ILE         0.0230
@<TRIPOS>BOND
     1    1    2 2  
     2    1    3 1  
     3    1    7 am 
     4    3    4 1  
     5    3    5 1  
     6    3    6 1  
     7    7    8 1  
     8    7   15 1  
     9    8    9 1  
    10    8   11 1  
    11    8   16 1  
    12    9   10 2  
    13    9   21 am 
    14   11   12 1  
    15   11   17 1  
    16   11   18 1  
    17   12   13 2  
    18   12   14 am 
    19   14   19 1  
    20   14   20 1  
    21   21   22 1  
    22   21   27 1  
    23   22   23 1  
    24   22   25 1  
    25   22   28 1  
    26   23   24 2  
    27   23   35 am 
    28   25   26 1  
    29   25   29 1  
    30   25   30 1  
    31   26   27 1  
    32   26   31 1  
    33   26   32 1  
    34   27   33 1  
    35   27   34 1  
    36   35   36 1  
    37   35   43 1  
    38   36   37 1  
    39   36   39 1  
    40   36   44 1  
    41   37   38 2  
    42   39   40 1  
    43   39   41 1  
    44   37   45 1  
    45   40   42 1  
    46   39   46 1  
    47   40   47 1  
    48   40   48 1  
    49   41   49 1  
    50   41   50 1  
    51   41   51 1  
    52   42   52 1  
    53   42   53 1  
    54   42   54 1  
@<TRIPOS>SUBSTRUCTURE
     1 ACE         1

