### 
### Created by X-TOOL on Mon Sep 10 21:12:48 2018
### 

@<TRIPOS>MOLECULE
1gvx_ligand
  127   129     1     0     0
SMALL
GAST_HUCK


@<TRIPOS>ATOM
      1 N           3.2120   24.9030   22.0330 N.4       1 PRO         0.2461
      2 CA          3.3150   25.2870   20.6090 C.3       1 PRO         0.0670
      3 C           3.4820   26.7870   20.3460 C.2       1 PRO         0.2268
      4 O           2.9720   27.5510   21.2060 O.2       1 PRO        -0.3907
      5 CB          1.9610   24.8390   20.0330 C.3       1 PRO         0.0127
      6 CG          1.5210   23.6970   20.8660 C.3       1 PRO        -0.0053
      7 CD          2.1420   23.9000   22.2210 C.3       1 PRO        -0.0313
      8 N           4.1790   27.2140   19.2900 N.am      1 THR        -0.2586
      9 CA          4.3720   28.6190   18.8770 C.3       1 THR         0.1566
     10 C           3.5220   28.9530   17.6360 C.2       1 THR         0.2065
     11 O           3.1590   28.0090   16.8220 O.2       1 THR        -0.3943
     12 CB          5.8770   28.8830   18.5580 C.3       1 THR         0.0924
     13 OG1         6.1910   28.1510   17.3690 O.3       1 THR        -0.3874
     14 CG2         6.7790   28.3240   19.6400 C.3       1 THR        -0.0346
     15 N           3.2110   30.2350   17.4400 N.am      1 GLU        -0.2635
     16 CA          2.4980   30.7410   16.2280 C.3       1 GLU         0.1323
     17 C           3.1950   32.0120   15.7130 C.2       1 GLU         0.2023
     18 O           2.5570   33.1050   15.6020 O.2       1 GLU        -0.3945
     19 CB          0.9910   31.0140   16.4550 C.3       1 GLU        -0.0008
     20 CG          0.2080   29.7350   16.8360 C.3       1 GLU         0.0044
     21 CD         -1.2090   30.0900   17.2880 C.2       1 GLU         0.0350
     22 OE1        -2.0280   30.4060   16.4360 O.co2     1 GLU        -0.5690
     23 OE2        -1.4220   30.0410   18.5020 O.co2     1 GLU        -0.5690
     24 N           4.4940   31.9280   15.2950 N.am      1 PUK        -0.2749
     25 C1A         5.2900   33.0910   14.9050 C.3       1 PUK         0.0911
     26 CT          5.2060   33.4120   13.3870 C.3       1 PUK        -0.0061
     27 CB          6.8140   32.9110   15.2700 C.3       1 PUK         0.0089
     28 CG          7.1910   32.6490   16.7300 C.ar      1 PUK        -0.0406
     29 CD1         8.2800   31.7980   17.0120 C.ar      1 PUK        -0.0603
     30 CD2         6.5500   33.2160   17.8050 C.ar      1 PUK        -0.0603
     31 CE1         8.6950   31.5060   18.3320 C.ar      1 PUK        -0.0686
     32 CE2         6.9530   32.9520   19.1220 C.ar      1 PUK        -0.0686
     33 CZ          8.0470   32.1540   19.3840 C.ar      1 PUK        -0.0687
     34 N1          3.7810   33.4720   12.8670 N.4       1 PUK         0.2493
     35 C2A         3.4800   34.6400   11.9890 C.3       1 PUK         0.0763
     36 CT1         3.3770   35.9070   12.8430 C.2       1 PUK         0.2288
     37 O           2.9620   35.8850   14.0190 O.2       1 PUK        -0.3905
     38 CB1         2.1660   34.4130   11.1760 C.3       1 PUK         0.0416
     39 CG1         0.8810   34.0960   12.0030 C.ar      1 PUK        -0.0353
     40 CD3         0.6020   32.7830   12.3650 C.ar      1 PUK        -0.0600
     41 CD4         0.0040   35.0640   12.4810 C.ar      1 PUK        -0.0600
     42 CE3        -0.5300   32.4460   13.1280 C.ar      1 PUK        -0.0686
     43 CE4        -1.1730   34.7540   13.1760 C.ar      1 PUK        -0.0686
     44 CZ1        -1.3770   33.4360   13.5400 C.ar      1 PUK        -0.0687
     45 N           3.7860   37.0730   12.2150 N.am      1 ARG        -0.2609
     46 CA          3.4990   38.4110   12.8100 C.3       1 ARG         0.1312
     47 C           1.9770   38.7070   12.8140 C.2       1 ARG         0.2033
     48 O           1.3150   38.4850   11.7880 O.2       1 ARG        -0.3944
     49 CB          4.2470   39.5160   12.0070 C.3       1 ARG        -0.0092
     50 CG          3.9640   40.9110   12.5920 C.3       1 ARG        -0.0156
     51 CD          4.5950   42.0880   11.8490 C.3       1 ARG         0.0627
     52 NE          3.9770   43.3310   12.3570 N.pl3     1 ARG        -0.2723
     53 CZ          3.8790   44.4520   11.6730 C.cat     1 ARG         0.2882
     54 NH1         4.4330   44.5030   10.4680 N.pl3     1 ARG        -0.2849
     55 NH2         3.2610   45.5390   12.1820 N.pl3     1 ARG        -0.2849
     56 N           1.4670   39.2000   13.9330 N.am      1 GLU        -0.2694
     57 CA          0.0940   39.7610   13.9970 C.3       1 GLU         0.0959
     58 C           0.1460   41.3150   13.9800 C.2       1 GLU         0.0602
     59 O          -0.9730   41.8680   13.7430 O.co2     1 GLU        -0.5666
     60 CB         -0.7210   39.1720   15.1440 C.3       1 GLU        -0.0064
     61 CG         -2.2330   39.2710   14.9660 C.3       1 GLU         0.0038
     62 CD         -3.0460   38.0070   15.1360 C.2       1 GLU         0.0350
     63 OE1        -4.2750   38.0740   15.4150 O.co2     1 GLU        -0.5690
     64 OE2        -2.4810   36.8970   14.9770 O.co2     1 GLU        -0.5690
     65 O1          1.2042   41.9680   14.1833 O.co2     1 GLU        -0.5666
     66 H1          3.0007   25.7209   22.5830 H         1 PRO         0.2035
     67 H2          4.0904   24.5121   22.3359 H         1 PRO         0.2035
     68 H3          4.1491   24.7485   20.1355 H         1 PRO         0.1099
     69 H4          2.0764   24.5255   18.9850 H         1 PRO         0.0347
     70 H5          1.2303   25.6591   20.0921 H         1 PRO         0.0347
     71 H6          1.8664   22.7495   20.4267 H         1 PRO         0.0320
     72 H7          0.4241   23.6851   20.9475 H         1 PRO         0.0320
     73 H8          2.5650   22.9552   22.5930 H         1 PRO         0.0814
     74 H9          1.3911   24.2714   22.9338 H         1 PRO         0.0814
     75 H10         4.6129   26.5138   18.7231 H         1 THR         0.1885
     76 H11         4.0621   29.2737   19.7048 H         1 THR         0.0826
     77 H12         6.0555   29.9603   18.4254 H         1 THR         0.0639
     78 H13         7.1037   28.2896   17.1449 H         1 THR         0.2101
     79 H14         7.8291   28.5275   19.3832 H         1 THR         0.0257
     80 H15         6.6251   27.2378   19.7207 H         1 THR         0.0257
     81 H16         6.5376   28.8010   20.6013 H         1 THR         0.0257
     82 H17         3.4698   30.8957   18.1446 H         1 GLU         0.1883
     83 H18         2.5776   29.9665   15.4510 H         1 GLU         0.0801
     84 H19         0.5638   31.4264   15.5291 H         1 GLU         0.0330
     85 H20         0.8839   31.7482   17.2671 H         1 GLU         0.0330
     86 H21         0.7313   29.2207   17.6555 H         1 GLU         0.0433
     87 H22         0.1531   29.0700   15.9615 H         1 GLU         0.0433
     88 H23         4.9217   31.0250   15.2539 H         1 PUK         0.1859
     89 H24         4.8992   33.9563   15.4604 H         1 PUK         0.0632
     90 H25         5.7475   32.6305   12.8338 H         1 PUK         0.0839
     91 H26         5.6847   34.3862   13.2085 H         1 PUK         0.0839
     92 H27         7.3323   33.8308   14.9612 H         1 PUK         0.0450
     93 H28         7.1907   32.0622   14.6804 H         1 PUK         0.0450
     94 H29         8.8195   31.3506   16.1851 H         1 PUK         0.0557
     95 H30         5.7133   33.8829   17.6310 H         1 PUK         0.0557
     96 H31         9.4942   30.7985   18.5212 H         1 PUK         0.0599
     97 H32         6.3961   33.3817   19.9468 H         1 PUK         0.0599
     98 H33         8.4012   32.0310   20.4011 H         1 PUK         0.0559
     99 H34         3.1598   33.5084   13.6600 H         1 PUK         0.2038
    100 H35         3.6045   32.6309   12.3402 H         1 PUK         0.2038
    101 H36         4.3088   34.7637   11.2764 H         1 PUK         0.1123
    102 H37         2.3385   33.5701   10.4906 H         1 PUK         0.0507
    103 H38         1.9717   35.3256   10.5934 H         1 PUK         0.0507
    104 H39         1.2772   31.9957   12.0497 H         1 PUK         0.0557
    105 H40         0.2420   36.1073   12.3079 H         1 PUK         0.0557
    106 H41        -0.7286   31.4122   13.3865 H         1 PUK         0.0599
    107 H42        -1.8986   35.5215   13.4198 H         1 PUK         0.0599
    108 H43        -2.2259   33.1828   14.1648 H         1 PUK         0.0559
    109 H44         4.2819   37.0166   11.3484 H         1 ARG         0.1885
    110 H45         3.8611   38.4183   13.8486 H         1 ARG         0.0800
    111 H46         3.9102   39.4900   10.9602 H         1 ARG         0.0313
    112 H47         5.3288   39.3212   12.0491 H         1 ARG         0.0313
    113 H48         4.3393   40.9252   13.6259 H         1 ARG         0.0301
    114 H49         2.8742   41.0601   12.5954 H         1 ARG         0.0301
    115 H50         4.4077   41.9919   10.7693 H         1 ARG         0.0689
    116 H51         5.6793   42.1078   12.0328 H         1 ARG         0.0689
    117 H52         3.5960   43.3195   13.3139 H         1 ARG         0.2642
    118 H53         4.3726   45.3663    9.9095 H         1 ARG         0.2615
    119 H54         4.9233   43.6792   10.0913 H         1 ARG         0.2615
    120 H55         2.8319   45.4966   13.1174 H         1 ARG         0.2615
    121 H56         3.2186   46.4107   11.6349 H         1 ARG         0.2615
    122 H57         2.0257   39.1940   14.7624 H         1 GLU         0.1875
    123 H58        -0.4181   39.4563   13.0724 H         1 GLU         0.0727
    124 H59        -0.4488   39.7047   16.0671 H         1 GLU         0.0323
    125 H60        -0.4562   38.1089   15.2424 H         1 GLU         0.0323
    126 H61        -2.4200   39.6474   13.9495 H         1 GLU         0.0432
    127 H62        -2.6031   40.0008   15.7011 H         1 GLU         0.0432
@<TRIPOS>BOND
     1    2    1 1  
     2    2    5 1  
     3    3    2 1  
     4    3    4 2  
     5    5    6 1  
     6    6    7 1  
     7    1    7 1  
     8   10    9 1  
     9    9   12 1  
    10    9    8 1  
    11   12   13 1  
    12   12   14 1  
    13   10   11 2  
    14   17   16 1  
    15   16   19 1  
    16   16   15 1  
    17   19   20 1  
    18   20   21 1  
    19   21   22 ar 
    20   21   23 ar 
    21   17   18 2  
    22   25   24 1  
    23   25   27 1  
    24   26   25 1  
    25   34   26 1  
    26   35   34 1  
    27   35   38 1  
    28   36   35 1  
    29   36   37 2  
    30   38   39 1  
    31   39   41 ar 
    32   39   40 ar 
    33   40   42 ar 
    34   42   44 ar 
    35   43   44 ar 
    36   41   43 ar 
    37   27   28 1  
    38   28   30 ar 
    39   28   29 ar 
    40   29   31 ar 
    41   31   33 ar 
    42   32   33 ar 
    43   30   32 ar 
    44   46   47 1  
    45   46   49 1  
    46   45   46 1  
    47   49   50 1  
    48   50   51 1  
    49   51   52 1  
    50   52   53 ar 
    51   53   54 ar 
    52   53   55 ar 
    53   47   48 2  
    54   57   58 1  
    55   57   60 1  
    56   56   57 1  
    57   60   61 1  
    58   61   62 1  
    59   62   63 ar 
    60   62   64 ar 
    61   58   65 ar 
    62   58   59 ar 
    63    8    3 am 
    64   15   10 am 
    65   47   56 am 
    66   24   17 am 
    67   36   45 am 
    68    1   66 1  
    69    1   67 1  
    70    2   68 1  
    71    5   69 1  
    72    5   70 1  
    73    6   71 1  
    74    6   72 1  
    75    7   73 1  
    76    7   74 1  
    77    8   75 1  
    78    9   76 1  
    79   12   77 1  
    80   13   78 1  
    81   14   79 1  
    82   14   80 1  
    83   14   81 1  
    84   15   82 1  
    85   16   83 1  
    86   19   84 1  
    87   19   85 1  
    88   20   86 1  
    89   20   87 1  
    90   24   88 1  
    91   25   89 1  
    92   26   90 1  
    93   26   91 1  
    94   27   92 1  
    95   27   93 1  
    96   29   94 1  
    97   30   95 1  
    98   31   96 1  
    99   32   97 1  
   100   33   98 1  
   101   34   99 1  
   102   34  100 1  
   103   35  101 1  
   104   38  102 1  
   105   38  103 1  
   106   40  104 1  
   107   41  105 1  
   108   42  106 1  
   109   43  107 1  
   110   44  108 1  
   111   45  109 1  
   112   46  110 1  
   113   49  111 1  
   114   49  112 1  
   115   50  113 1  
   116   50  114 1  
   117   51  115 1  
   118   51  116 1  
   119   52  117 1  
   120   54  118 1  
   121   54  119 1  
   122   55  120 1  
   123   55  121 1  
   124   56  122 1  
   125   57  123 1  
   126   60  124 1  
   127   60  125 1  
   128   61  126 1  
   129   61  127 1  
@<TRIPOS>SUBSTRUCTURE
     1 PRO         1

