### 
### Created by X-TOOL on Sun Sep  9 21:50:03 2018
### 

@<TRIPOS>MOLECULE
1gwm_ligand
  129   134     1     0     0
SMALL
GAST_HUCK


@<TRIPOS>ATOM
      1 C1         25.5600    8.2280   32.3120 C.3       1 NON         0.1854
      2 C2         26.6230    9.3010   32.4840 C.3       1 NON         0.1339
      3 C3         27.0380    9.8300   31.1160 C.3       1 NON         0.1144
      4 C4         27.4220    8.6830   30.2190 C.3       1 NON         0.1184
      5 C5         26.2730    7.7340   30.0740 C.3       1 NON         0.1134
      6 C6         26.5920    6.6530   29.0400 C.3       1 NON         0.0730
      7 O1         24.3810    8.7960   31.8180 O.3       1 NON        -0.3649
      8 O2         26.1600   10.3900   33.2630 O.3       1 NON        -0.3841
      9 O3         28.1260   10.7160   31.2430 O.3       1 NON        -0.3864
     10 O4         27.5820    9.2020   28.9190 O.3       1 NON        -0.3401
     11 O5         26.0790    7.2640   31.3880 O.3       1 NON        -0.3407
     12 O6         27.6620    5.9810   29.6430 O.3       1 NON        -0.3924
     13 C2         28.8520    8.3410   26.7660 C.3       1 NON         0.1341
     14 C3         30.2720    8.6080   26.1850 C.3       1 NON         0.1144
     15 C4         30.9030    9.9510   26.6530 C.3       1 NON         0.1184
     16 C5         30.8230   10.0220   28.1910 C.3       1 NON         0.1134
     17 C6         31.4820   11.2670   28.7540 C.3       1 NON         0.0730
     18 C1         28.7930    8.7350   28.2850 C.3       1 NON         0.1884
     19 O2         28.4730    6.9810   26.4700 O.3       1 NON        -0.3841
     20 O3         30.1980    8.4700   24.7750 O.3       1 NON        -0.3864
     21 O4         32.3120   10.1200   26.3310 O.3       1 NON        -0.3401
     22 O5         29.4900    9.9080   28.6670 O.3       1 NON        -0.3405
     23 O6         30.8340   12.4240   28.2820 O.3       1 NON        -0.3924
     24 C2         34.2070   11.2960   25.5310 C.3       1 NON         0.1341
     25 C3         34.7790   12.1240   24.3900 C.3       1 NON         0.1144
     26 C4         34.3730   11.5690   23.0180 C.3       1 NON         0.1184
     27 C5         32.8650   11.3790   22.9880 C.3       1 NON         0.1134
     28 C6         32.3490   10.7630   21.6870 C.3       1 NON         0.0730
     29 C1         32.7230   11.0820   25.3300 C.3       1 NON         0.1884
     30 O2         34.4700   11.9180   26.7840 O.3       1 NON        -0.3841
     31 O3         36.1750   12.1850   24.5460 O.3       1 NON        -0.3864
     32 O4         34.7150   12.4820   21.9890 O.3       1 NON        -0.3401
     33 O5         32.5120   10.5260   24.0560 O.3       1 NON        -0.3405
     34 O6         33.0490    9.5980   21.3190 O.3       1 NON        -0.3924
     35 C2         35.8640   12.9020   19.9160 C.3       1 NON         0.1341
     36 C3         37.1290   12.4950   19.1540 C.3       1 NON         0.1144
     37 C4         38.3790   12.6990   20.0110 C.3       1 NON         0.1184
     38 C5         38.1890   11.9760   21.3400 C.3       1 NON         0.1134
     39 C6         39.3480   12.1370   22.3080 C.3       1 NON         0.0730
     40 C1         35.8480   12.1310   21.2200 C.3       1 NON         0.1884
     41 O2         34.6970   12.6820   19.1500 O.3       1 NON        -0.3841
     42 O3         37.2880   13.2690   17.9950 O.3       1 NON        -0.3864
     43 O4         39.5000   12.1270   19.3370 O.3       1 NON        -0.3401
     44 O5         37.0090   12.4350   21.9630 O.3       1 NON        -0.3405
     45 O6         39.5750   13.5070   22.5550 O.3       1 NON        -0.3924
     46 C2         41.8160   11.9900   18.9560 C.3       1 NON         0.1341
     47 C3         43.0800   12.7870   18.7010 C.3       1 NON         0.1144
     48 C4         42.8260   13.8790   17.6680 C.3       1 NON         0.1184
     49 C5         41.6380   14.7320   18.0810 C.3       1 NON         0.1134
     50 C6         41.2550   15.7620   17.0230 C.3       1 NON         0.0730
     51 C1         40.6780   12.9220   19.2840 C.3       1 NON         0.1884
     52 O2         42.0560   11.0800   20.0010 O.3       1 NON        -0.3841
     53 O3         44.0780   11.8600   18.2680 O.3       1 NON        -0.3864
     54 O4         43.9530   14.7590   17.5840 O.3       1 NON        -0.3401
     55 O5         40.5040   13.8830   18.2580 O.3       1 NON        -0.3405
     56 O6         40.3330   16.6920   17.5320 O.3       1 NON        -0.3924
     57 C2         45.6340   15.7960   16.2250 C.3       1 NON         0.1341
     58 C3         46.6750   15.5710   15.1310 C.3       1 NON         0.1141
     59 C4         47.4500   14.2800   15.3600 C.3       1 NON         0.1119
     60 C5         46.4840   13.1300   15.6340 C.3       1 NON         0.1130
     61 C6         47.2220   11.8350   15.9170 C.3       1 NON         0.0730
     62 C1         44.7830   14.5510   16.4430 C.3       1 NON         0.1884
     63 O2         44.7970   16.8950   15.9120 O.3       1 NON        -0.3841
     64 O3         47.5840   16.6700   15.0920 O.3       1 NON        -0.3864
     65 O4         48.2700   14.0090   14.2270 O.3       1 NON        -0.3865
     66 O5         45.6310   13.4610   16.7210 O.3       1 NON        -0.3405
     67 O6         47.7640   11.8710   17.2050 O.3       1 NON        -0.3924
     68 H1         25.3535    7.7455   33.2787 H         1 NON         0.0935
     69 H2         27.4959    8.8539   32.9822 H         1 NON         0.0671
     70 H3         26.1891   10.3677   30.6686 H         1 NON         0.0648
     71 H4         28.3280    8.1784   30.5858 H         1 NON         0.0651
     72 H5         25.3727    8.2702   29.7394 H         1 NON         0.0647
     73 H6         26.8891    7.0954   28.0777 H         1 NON         0.0584
     74 H7         25.7343    5.9817   28.8858 H         1 NON         0.0584
     75 H8         23.7329    8.1138   31.6868 H         1 NON         0.2126
     76 H9         26.8570   11.0284   33.3586 H         1 NON         0.2101
     77 H10        28.8664   10.2547   31.6192 H         1 NON         0.2100
     78 H11        27.3814    5.6265   30.4785 H         1 NON         0.2095
     79 H12        28.1413    8.9959   26.2407 H         1 NON         0.0671
     80 H13        30.9336    7.8123   26.5581 H         1 NON         0.0648
     81 H14        30.3325   10.7766   26.2026 H         1 NON         0.0651
     82 H15        31.3815    9.1569   28.5779 H         1 NON         0.0647
     83 H16        32.5368   11.2905   28.4429 H         1 NON         0.0584
     84 H17        31.4241   11.2422   29.8522 H         1 NON         0.0584
     85 H18        29.1773    7.8562   28.8236 H         1 NON         0.0938
     86 H19        29.0539    6.3848   26.9277 H         1 NON         0.2101
     87 H20        29.8049    7.6323   24.5601 H         1 NON         0.2100
     88 H21        29.9231   12.4076   28.5513 H         1 NON         0.2095
     89 H22        34.7004   10.3129   25.5261 H         1 NON         0.0671
     90 H23        34.3775   13.1452   24.4677 H         1 NON         0.0648
     91 H24        34.8788   10.6075   22.8457 H         1 NON         0.0651
     92 H25        32.3855   12.3596   23.1240 H         1 NON         0.0647
     93 H26        32.4533   11.5047   20.8814 H         1 NON         0.0584
     94 H27        31.2866   10.5085   21.8159 H         1 NON         0.0584
     95 H28        32.1689   12.0262   25.4367 H         1 NON         0.0938
     96 H29        34.0339   12.7613   26.8153 H         1 NON         0.2101
     97 H30        36.5428   12.7509   23.8775 H         1 NON         0.2100
     98 H31        32.9596    8.9464   22.0045 H         1 NON         0.2095
     99 H32        35.9192   13.9767   20.1438 H         1 NON         0.0671
    100 H33        37.0461   11.4339   18.8763 H         1 NON         0.0648
    101 H34        38.5479   13.7721   20.1839 H         1 NON         0.0651
    102 H35        38.0791   10.9032   21.1230 H         1 NON         0.0647
    103 H36        40.2533   11.6893   21.8721 H         1 NON         0.0584
    104 H37        39.1073   11.6300   23.2541 H         1 NON         0.0584
    105 H38        35.8217   11.0531   21.0024 H         1 NON         0.0938
    106 H39        34.6236   11.7572   18.9453 H         1 NON         0.2101
    107 H40        37.3822   14.1830   18.2364 H         1 NON         0.2100
    108 H41        38.7934   13.8934   22.9320 H         1 NON         0.2095
    109 H42        41.5564   11.4261   18.0479 H         1 NON         0.0671
    110 H43        43.4095   13.2620   19.6368 H         1 NON         0.0648
    111 H44        42.6355   13.4159   16.6886 H         1 NON         0.0651
    112 H45        41.8774   15.2476   19.0227 H         1 NON         0.0647
    113 H46        40.8049   15.2437   16.1635 H         1 NON         0.0584
    114 H47        42.1600   16.2953   16.6967 H         1 NON         0.0584
    115 H48        40.8588   13.4232   20.2463 H         1 NON         0.0938
    116 H49        42.2772   11.5583   20.7914 H         1 NON         0.2101
    117 H50        44.2058   11.1983   18.9376 H         1 NON         0.2100
    118 H51        39.5474   16.2368   17.8118 H         1 NON         0.2095
    119 H52        46.1659   16.0203   17.1613 H         1 NON         0.0671
    120 H53        46.1564   15.5026   14.1634 H         1 NON         0.0648
    121 H54        48.0986   14.4069   16.2393 H         1 NON         0.0647
    122 H55        45.8638   12.9814   14.7377 H         1 NON         0.0647
    123 H56        48.0318   11.7083   15.1834 H         1 NON         0.0584
    124 H57        46.5212   10.9907   15.8391 H         1 NON         0.0584
    125 H58        44.1710   14.3457   15.5524 H         1 NON         0.0938
    126 H59        44.1933   17.0464   16.6297 H         1 NON         0.2101
    127 H60        48.0513   16.7224   15.9175 H         1 NON         0.2100
    128 H61        47.7205   13.8866   13.4618 H         1 NON         0.2100
    129 H62        47.0647   11.9797   17.8387 H         1 NON         0.2095
@<TRIPOS>BOND
     1    2    1 1  
     2    1    7 1  
     3   11    1 1  
     4    3    2 1  
     5    2    8 1  
     6    4    3 1  
     7    3    9 1  
     8    4    5 1  
     9   10    4 1  
    10    5    6 1  
    11    5   11 1  
    12    6   12 1  
    13   18   10 1  
    14   14   13 1  
    15   13   18 1  
    16   13   19 1  
    17   15   14 1  
    18   14   20 1  
    19   15   16 1  
    20   21   15 1  
    21   16   17 1  
    22   16   22 1  
    23   17   23 1  
    24   22   18 1  
    25   29   21 1  
    26   25   24 1  
    27   24   29 1  
    28   24   30 1  
    29   26   25 1  
    30   25   31 1  
    31   26   27 1  
    32   32   26 1  
    33   27   28 1  
    34   27   33 1  
    35   28   34 1  
    36   33   29 1  
    37   40   32 1  
    38   36   35 1  
    39   35   40 1  
    40   35   41 1  
    41   37   36 1  
    42   36   42 1  
    43   37   38 1  
    44   43   37 1  
    45   38   39 1  
    46   38   44 1  
    47   39   45 1  
    48   44   40 1  
    49   51   43 1  
    50   47   46 1  
    51   46   51 1  
    52   46   52 1  
    53   48   47 1  
    54   47   53 1  
    55   48   49 1  
    56   54   48 1  
    57   49   50 1  
    58   49   55 1  
    59   50   56 1  
    60   55   51 1  
    61   62   54 1  
    62   57   58 1  
    63   57   62 1  
    64   57   63 1  
    65   58   59 1  
    66   58   64 1  
    67   59   60 1  
    68   59   65 1  
    69   60   61 1  
    70   60   66 1  
    71   61   67 1  
    72   62   66 1  
    73    1   68 1  
    74    2   69 1  
    75    3   70 1  
    76    4   71 1  
    77    5   72 1  
    78    6   73 1  
    79    6   74 1  
    80    7   75 1  
    81    8   76 1  
    82    9   77 1  
    83   12   78 1  
    84   13   79 1  
    85   14   80 1  
    86   15   81 1  
    87   16   82 1  
    88   17   83 1  
    89   17   84 1  
    90   18   85 1  
    91   19   86 1  
    92   20   87 1  
    93   23   88 1  
    94   24   89 1  
    95   25   90 1  
    96   26   91 1  
    97   27   92 1  
    98   28   93 1  
    99   28   94 1  
   100   29   95 1  
   101   30   96 1  
   102   31   97 1  
   103   34   98 1  
   104   35   99 1  
   105   36  100 1  
   106   37  101 1  
   107   38  102 1  
   108   39  103 1  
   109   39  104 1  
   110   40  105 1  
   111   41  106 1  
   112   42  107 1  
   113   45  108 1  
   114   46  109 1  
   115   47  110 1  
   116   48  111 1  
   117   49  112 1  
   118   50  113 1  
   119   50  114 1  
   120   51  115 1  
   121   52  116 1  
   122   53  117 1  
   123   56  118 1  
   124   57  119 1  
   125   58  120 1  
   126   59  121 1  
   127   60  122 1  
   128   61  123 1  
   129   61  124 1  
   130   62  125 1  
   131   63  126 1  
   132   64  127 1  
   133   65  128 1  
   134   67  129 1  
@<TRIPOS>SUBSTRUCTURE
     1 NON         1

