### 
### Created by X-TOOL on Sun Sep  9 21:50:04 2018
### 

@<TRIPOS>MOLECULE
1gwv_ligand
   45    46     1     0     0
SMALL
GAST_HUCK


@<TRIPOS>ATOM
      1 C1          8.3750    9.7520   55.8080 C.3       1 NON         0.1884
      2 C2          8.2590    9.6630   54.2910 C.3       1 NON         0.1341
      3 C3          6.7730    9.5550   53.9050 C.3       1 NON         0.1141
      4 C4          6.1810    8.3110   54.6170 C.3       1 NON         0.1119
      5 C5          6.3670    8.4610   56.1560 C.3       1 NON         0.1130
      6 C6          5.8860    7.3960   56.8280 C.3       1 NON         0.0730
      7 O1          9.7430    9.7950   56.1820 O.3       1 NON        -0.3401
      8 O2          8.8310   10.8150   53.6450 O.3       1 NON        -0.3841
      9 O3          6.6540    9.4630   52.4910 O.3       1 NON        -0.3864
     10 O4          6.8410    7.1050   54.1860 O.3       1 NON        -0.3865
     11 O5          7.7920    8.6140   56.4730 O.3       1 NON        -0.3405
     12 O6          5.8790    7.6850   58.2130 O.3       1 NON        -0.3924
     13 C1'        11.9910   10.4990   59.6800 C.3       1 NON         0.1854
     14 C2'        10.7230    9.6380   59.8780 C.3       1 NON         0.1339
     15 C3'        10.3290    9.0690   58.4910 C.3       1 NON         0.1144
     16 C4'        10.0740   10.2460   57.5280 C.3       1 NON         0.1184
     17 C5'        11.3200   11.1370   57.4080 C.3       1 NON         0.1134
     18 C6'        11.0840   12.3910   56.5740 C.3       1 NON         0.0730
     19 O1'        12.3800   11.0420   60.9000 O.3       1 NON        -0.3649
     20 O2'        10.9530    8.5690   60.7590 O.3       1 NON        -0.3841
     21 O3'         9.1830    8.2540   58.6500 O.3       1 NON        -0.3864
     22 O5'        11.7200   11.5810   58.7410 O.3       1 NON        -0.3407
     23 O6'        12.3030   12.8390   56.0060 O.3       1 NON        -0.3924
     24 H1          7.8680   10.6676   56.1467 H         1 NON         0.0938
     25 H2          8.7906    8.7635   53.9471 H         1 NON         0.0671
     26 H3          6.2380   10.4531   54.2472 H         1 NON         0.0648
     27 H4          5.1088    8.2393   54.3820 H         1 NON         0.0647
     28 H5          5.8260    9.3600   56.4864 H         1 NON         0.0647
     29 H6          6.5254    6.5214   56.6378 H         1 NON         0.0584
     30 H7          4.8610    7.1809   56.4918 H         1 NON         0.0584
     31 H8          8.7510   10.7208   52.7031 H         1 NON         0.2101
     32 H9          7.0263   10.2405   52.0917 H         1 NON         0.2100
     33 H10         6.4575    6.3588   54.6317 H         1 NON         0.2100
     34 H11         5.5405    6.9363   58.6899 H         1 NON         0.2095
     35 H12        12.8005    9.8676   59.2849 H         1 NON         0.0935
     36 H13         9.9108   10.2653   60.2739 H         1 NON         0.0671
     37 H14        11.1519    8.4558   58.0952 H         1 NON         0.0648
     38 H15         9.2376   10.8409   57.9237 H         1 NON         0.0651
     39 H16        12.1296   10.5491   56.9510 H         1 NON         0.0647
     40 H17        10.6705   13.1821   57.2167 H         1 NON         0.0584
     41 H18        10.3705   12.1625   55.7686 H         1 NON         0.0584
     42 H19        11.6825   11.5917   61.2375 H         1 NON         0.2126
     43 H20        10.1619    8.0489   60.8374 H         1 NON         0.2101
     44 H21         8.9297    7.8976   57.8066 H         1 NON         0.2100
     45 H22        12.6608   12.1577   55.4490 H         1 NON         0.2095
@<TRIPOS>BOND
     1    1    2 1  
     2    7    1 1  
     3    1   11 1  
     4    2    3 1  
     5    2    8 1  
     6    3    4 1  
     7    3    9 1  
     8    5    4 1  
     9    4   10 1  
    10    5    6 1  
    11   11    5 1  
    12    6   12 1  
    13   16    7 1  
    14   14   13 1  
    15   13   19 1  
    16   13   22 1  
    17   15   14 1  
    18   14   20 1  
    19   15   16 1  
    20   15   21 1  
    21   16   17 1  
    22   17   18 1  
    23   17   22 1  
    24   18   23 1  
    25    1   24 1  
    26    2   25 1  
    27    3   26 1  
    28    4   27 1  
    29    5   28 1  
    30    6   29 1  
    31    6   30 1  
    32    8   31 1  
    33    9   32 1  
    34   10   33 1  
    35   12   34 1  
    36   13   35 1  
    37   14   36 1  
    38   15   37 1  
    39   16   38 1  
    40   17   39 1  
    41   18   40 1  
    42   18   41 1  
    43   19   42 1  
    44   20   43 1  
    45   21   44 1  
    46   23   45 1  
@<TRIPOS>SUBSTRUCTURE
     1 NON         1

