### 
### Created by X-TOOL on Mon Sep 10 21:12:49 2018
### 

@<TRIPOS>MOLECULE
1gx8_ligand
   51    51     1     0     0
SMALL
GAST_HUCK


@<TRIPOS>ATOM
      1 C1         12.1920   -2.0580   56.5960 C.3       1 RTL        -0.0970
      2 C2         13.6660   -2.1210   57.0700 C.3       1 RTL        -0.1037
      3 C3         13.8270   -2.4290   58.5320 C.3       1 RTL        -0.0389
      4 C4         13.2170   -1.2960   59.3320 C.3       1 RTL         0.0374
      5 C5         11.8380   -0.9510   58.8370 C.2       1 RTL         0.0234
      6 C6         11.2990   -1.3880   57.6630 C.2       1 RTL        -0.0560
      7 C7         10.0610   -0.7270   57.2060 C.2       1 RTL        -0.0696
      8 C8          8.7950   -1.1080   57.1830 C.2       1 RTL        -0.0618
      9 C9          7.5610   -0.5020   56.7350 C.2       1 RTL        -0.0512
     10 C10         6.4290   -1.2150   56.9020 C.2       1 RTL        -0.0715
     11 C11         5.0900   -0.8210   56.5200 C.2       1 RTL        -0.0806
     12 C12         3.9760   -1.5590   56.6580 C.2       1 RTL        -0.0755
     13 C13         2.6270   -1.1300   56.2950 C.2       1 RTL        -0.0586
     14 C14         2.0180   -0.2960   57.1490 C.2       1 RTL        -0.0536
     15 C15         0.6750    0.3290   57.0320 C.3       1 RTL         0.0699
     16 O1         -0.2350   -0.3640   57.7090 O.3       1 RTL        -0.3824
     17 C16        12.2170   -1.2010   55.3060 C.3       1 RTL        -0.1205
     18 C17        11.7030   -3.4620   56.2220 C.3       1 RTL        -0.1205
     19 C18        11.2360    0.1590   59.6770 C.3       1 RTL         0.0278
     20 C19         7.5950    0.9030   56.1510 C.3       1 RTL        -0.0323
     21 C20         2.0350   -1.6590   55.0290 C.3       1 RTL        -0.0401
     22 H1         14.1358   -1.1471   56.8683 H         1 RTL         0.0062
     23 H2         14.1813   -2.9032   56.4933 H         1 RTL         0.0062
     24 H3         14.8955   -2.5222   58.7761 H         1 RTL         0.0308
     25 H4         13.3125   -3.3713   58.7716 H         1 RTL         0.0308
     26 H5         13.8609   -0.4086   59.2432 H         1 RTL         0.0732
     27 H6         13.1525   -1.5981   60.3877 H         1 RTL         0.0732
     28 H7         10.2224    0.2740   56.8085 H         1 RTL         0.0605
     29 H8          8.6484   -2.1052   57.5953 H         1 RTL         0.0560
     30 H9          6.5333   -2.1907   57.3744 H         1 RTL         0.0484
     31 H10         4.9744    0.1678   56.0787 H         1 RTL         0.0518
     32 H11         4.0873   -2.5590   57.0746 H         1 RTL         0.0522
     33 H12         2.5811   -0.0432   58.0462 H         1 RTL         0.0600
     34 H13         0.3853    0.3626   55.9714 H         1 RTL         0.0731
     35 H14         0.7187    1.3525   57.4328 H         1 RTL         0.0731
     36 H15        -0.2793   -1.2480   57.3641 H         1 RTL         0.2132
     37 H16        11.1962   -1.1102   54.9063 H         1 RTL         0.0022
     38 H17        12.8622   -1.6839   54.5574 H         1 RTL         0.0022
     39 H18        12.6102   -0.2003   55.5381 H         1 RTL         0.0022
     40 H19        11.6758   -4.0928   57.1227 H         1 RTL         0.0022
     41 H20        12.3888   -3.9049   55.4848 H         1 RTL         0.0022
     42 H21        10.6935   -3.3958   55.7902 H         1 RTL         0.0022
     43 H22        10.2299    0.3981   59.3020 H         1 RTL         0.0698
     44 H23        11.8731    1.0535   59.6136 H         1 RTL         0.0698
     45 H24        11.1683   -0.1695   60.7246 H         1 RTL         0.0698
     46 H25         8.6341    1.2626   56.1211 H         1 RTL         0.0396
     47 H26         6.9922    1.5757   56.7787 H         1 RTL         0.0396
     48 H27         7.1834    0.8862   55.1311 H         1 RTL         0.0396
     49 H28         2.7611   -2.3197   54.5328 H         1 RTL         0.0350
     50 H29         1.7868   -0.8204   54.3618 H         1 RTL         0.0350
     51 H30         1.1215   -2.2263   55.2604 H         1 RTL         0.0350
@<TRIPOS>BOND
     1    1    2 1  
     2    1    6 1  
     3    1   17 1  
     4    1   18 1  
     5    2    3 1  
     6    3    4 1  
     7    4    5 1  
     8    5    6 2  
     9    5   19 1  
    10    6    7 1  
    11    7    8 2  
    12    8    9 1  
    13    9   10 2  
    14    9   20 1  
    15   10   11 1  
    16   11   12 2  
    17   12   13 1  
    18   13   14 2  
    19   13   21 1  
    20   14   15 1  
    21   15   16 1  
    22    2   22 1  
    23    2   23 1  
    24    3   24 1  
    25    3   25 1  
    26    4   26 1  
    27    4   27 1  
    28    7   28 1  
    29    8   29 1  
    30   10   30 1  
    31   11   31 1  
    32   12   32 1  
    33   14   33 1  
    34   15   34 1  
    35   15   35 1  
    36   16   36 1  
    37   17   37 1  
    38   17   38 1  
    39   17   39 1  
    40   18   40 1  
    41   18   41 1  
    42   18   42 1  
    43   19   43 1  
    44   19   44 1  
    45   19   45 1  
    46   20   46 1  
    47   20   47 1  
    48   20   48 1  
    49   21   49 1  
    50   21   50 1  
    51   21   51 1  
@<TRIPOS>SUBSTRUCTURE
     1 RTL         1

