### 
### Created by X-TOOL on Mon Sep 10 21:12:45 2018
### 

@<TRIPOS>MOLECULE
1gym_ligand
   47    48     1     0     0
SMALL
GAST_HUCK


@<TRIPOS>ATOM
      1 C1         20.4290   26.7150  102.5950 C.3       1 MYG         0.1122
      2 C2         20.1660   28.2550  102.7730 C.3       1 MYG         0.1118
      3 C3         21.5110   28.9830  103.0620 C.3       1 MYG         0.1118
      4 C4         22.5160   28.6770  101.9330 C.3       1 MYG         0.1118
      5 C5         22.8180   27.1660  101.9440 C.3       1 MYG         0.1122
      6 C6         21.5410   26.3840  101.5720 C.3       1 MYG         0.1184
      7 C7         22.0200   24.3300  100.4230 C.3       1 MYG         0.2058
      8 C8         21.0080   23.1530  100.3160 C.3       1 MYG         0.0567
      9 C9         21.4950   21.9460  101.1790 C.3       1 MYG         0.1304
     10 C10        22.8820   21.5390  100.6840 C.3       1 MYG         0.1147
     11 C11        23.8470   22.7000  100.9730 C.3       1 MYG         0.1132
     12 C12        25.2970   22.4020  100.4690 C.3       1 MYG         0.0730
     13 N8         19.6650   23.6200  100.7570 N.4       1 MYG         0.2263
     14 O1         19.2480   26.0810  102.2030 O.3       1 MYG        -0.3865
     15 O2         19.5620   28.7880  101.6150 O.3       1 MYG        -0.3865
     16 O3         21.3050   30.4000  103.2310 O.3       1 MYG        -0.3865
     17 O4         23.7330   29.3690  102.1830 O.3       1 MYG        -0.3865
     18 O5         23.8800   26.8750  101.0440 O.3       1 MYG        -0.3865
     19 O6         21.8140   24.9840  101.6680 O.3       1 MYG        -0.3377
     20 O9         20.6040   20.8210  101.0780 O.3       1 MYG        -0.3834
     21 O10        23.3210   20.3570  101.3410 O.3       1 MYG        -0.3864
     22 O11        23.3960   23.8700  100.2470 O.3       1 MYG        -0.3381
     23 O12        26.1150   21.6710  101.5470 O.3       1 MYG        -0.3924
     24 H1         20.7382   26.3128  103.5710 H         1 MYG         0.0647
     25 H2         19.4884   28.4046  103.6265 H         1 MYG         0.0647
     26 H3         21.9226   28.5880  104.0025 H         1 MYG         0.0647
     27 H4         22.0984   28.9789  100.9611 H         1 MYG         0.0647
     28 H5         23.1280   26.8720  102.9576 H         1 MYG         0.0647
     29 H6         21.2176   26.6453  100.5536 H         1 MYG         0.0651
     30 H7         21.8047   25.0483   99.6182 H         1 MYG         0.0970
     31 H8         20.9438   22.8306   99.2663 H         1 MYG         0.0927
     32 H9         21.5556   22.2577  102.2321 H         1 MYG         0.0679
     33 H10        22.8445   21.3532   99.6005 H         1 MYG         0.0648
     34 H11        23.8624   22.8999  102.0546 H         1 MYG         0.0647
     35 H12        25.7944   23.3515  100.2220 H         1 MYG         0.0584
     36 H13        25.2428   21.7715   99.5692 H         1 MYG         0.0584
     37 H14        19.3751   24.3977  100.1849 H         1 MYG         0.2000
     38 H15        19.7102   23.9106  101.7211 H         1 MYG         0.2000
     39 H16        19.0003   22.8680  100.6635 H         1 MYG         0.2000
     40 H17        18.5605   26.2804  102.8276 H         1 MYG         0.2100
     41 H18        18.7431   28.3359  101.4497 H         1 MYG         0.2100
     42 H19        20.6819   30.5468  103.9330 H         1 MYG         0.2100
     43 H20        24.0761   29.1082  103.0296 H         1 MYG         0.2100
     44 H21        24.0736   25.9454  101.0744 H         1 MYG         0.2100
     45 H22        20.9352   20.1074  101.6105 H         1 MYG         0.2102
     46 H23        22.7161   19.6487  101.1539 H         1 MYG         0.2100
     47 H24        25.6909   20.8483  101.7611 H         1 MYG         0.2095
@<TRIPOS>BOND
     1    1    2 1  
     2    6    1 1  
     3    1   14 1  
     4    2    3 1  
     5    2   15 1  
     6    4    3 1  
     7    3   16 1  
     8    5    4 1  
     9    4   17 1  
    10    6    5 1  
    11    5   18 1  
    12   19    6 1  
    13    7    8 1  
    14   19    7 1  
    15    7   22 1  
    16    8    9 1  
    17    8   13 1  
    18    9   10 1  
    19    9   20 1  
    20   10   11 1  
    21   10   21 1  
    22   11   12 1  
    23   11   22 1  
    24   12   23 1  
    25    1   24 1  
    26    2   25 1  
    27    3   26 1  
    28    4   27 1  
    29    5   28 1  
    30    6   29 1  
    31    7   30 1  
    32    8   31 1  
    33    9   32 1  
    34   10   33 1  
    35   11   34 1  
    36   12   35 1  
    37   12   36 1  
    38   13   37 1  
    39   13   38 1  
    40   13   39 1  
    41   14   40 1  
    42   15   41 1  
    43   16   42 1  
    44   17   43 1  
    45   18   44 1  
    46   20   45 1  
    47   21   46 1  
    48   23   47 1  
@<TRIPOS>SUBSTRUCTURE
     1 MYG         1

