### 
### Created by X-TOOL on Mon Sep 10 21:12:48 2018
### 

@<TRIPOS>MOLECULE
1gyx_ligand
   14    14     1     0     0
SMALL
GAST_HUCK


@<TRIPOS>ATOM
      1 C          11.3000    4.4720   23.3280 C.2       1 BEZ         0.0629
      2 O1         10.9970    4.2850   22.1630 O.co2     1 BEZ        -0.5606
      3 O2         10.8480    5.5550   23.9370 O.co2     1 BEZ        -0.5606
      4 C1         12.1110    3.4730   24.0570 C.ar      1 BEZ         0.0102
      5 C2         12.7670    3.7760   25.2500 C.ar      1 BEZ        -0.0476
      6 C3         13.5420    2.8200   25.9060 C.ar      1 BEZ        -0.0582
      7 C4         13.6550    1.5650   25.3410 C.ar      1 BEZ        -0.0592
      8 C5         13.0260    1.2680   24.1570 C.ar      1 BEZ        -0.0582
      9 C6         12.2490    2.2020   23.4850 C.ar      1 BEZ        -0.0476
     10 H1         12.6730    4.7694   25.6736 H         1 BEZ         0.0651
     11 H2         14.0438    3.0564   26.8373 H         1 BEZ         0.0624
     12 H3         14.2473    0.8053   25.8381 H         1 BEZ         0.0638
     13 H4         13.1394    0.2760   23.7350 H         1 BEZ         0.0624
     14 H5         11.7645    1.9553   22.5472 H         1 BEZ         0.0651
@<TRIPOS>BOND
     1    1    4 1  
     2    1    3 ar 
     3    1    2 ar 
     4    4    9 ar 
     5    4    5 ar 
     6    5    6 ar 
     7    6    7 ar 
     8    7    8 ar 
     9    8    9 ar 
    10    5   10 1  
    11    6   11 1  
    12    7   12 1  
    13    8   13 1  
    14    9   14 1  
@<TRIPOS>SUBSTRUCTURE
     1 BEZ         1

