### 
### Created by X-TOOL on Mon Sep 10 21:12:48 2018
### 

@<TRIPOS>MOLECULE
1gyy_ligand
   19    19     1     0     0
SMALL
GAST_HUCK


@<TRIPOS>ATOM
      1 C1         12.1640    2.4570   -4.4480 C.ar      1 FHC        -0.0349
      2 C7         12.4360    1.4470   -3.4280 C.2       1 FHC        -0.0232
      3 C8         13.4880    1.3100   -2.6160 C.2       1 FHC         0.1627
      4 C9         14.6510    2.1900   -2.5690 C.2       1 FHC         0.0898
      5 O3         15.7850    1.7830   -2.4520 O.co2     1 FHC        -0.5606
      6 O2         14.3920    3.5010   -2.7030 O.co2     1 FHC        -0.5606
      7 C6         13.1750    2.9500   -5.2850 C.ar      1 FHC        -0.0628
      8 C5         12.9230    3.8910   -6.2590 C.ar      1 FHC        -0.0316
      9 C4         11.6220    4.3610   -6.4280 C.ar      1 FHC         0.0896
     10 O1         11.3540    5.3150   -7.3740 O.3       1 FHC        -0.3317
     11 C3         10.6230    3.8720   -5.6120 C.ar      1 FHC        -0.0316
     12 C2         10.8590    2.9250   -4.6370 C.ar      1 FHC        -0.0628
     13 F1         13.5340    0.2590   -1.7540 F         1 FHC        -0.1799
     14 H1         11.6624    0.6894   -3.3117 H         1 FHC         0.0595
     15 H2         14.1862    2.5792   -5.1619 H         1 FHC         0.0595
     16 H3         13.7262    4.2611   -6.8858 H         1 FHC         0.0549
     17 H4         12.1535    5.5314   -7.8393 H         1 FHC         0.2492
     18 H5          9.6139    4.2462   -5.7419 H         1 FHC         0.0549
     19 H6         10.0458    2.5492   -4.0266 H         1 FHC         0.0595
@<TRIPOS>BOND
     1    1   12 ar 
     2    1    7 ar 
     3    1    2 1  
     4    2    3 2  
     5    3    4 1  
     6    4    6 ar 
     7    4    5 ar 
     8    7    8 ar 
     9    8    9 ar 
    10    9   11 ar 
    11    9   10 1  
    12   11   12 ar 
    13    3   13 1  
    14    2   14 1  
    15    7   15 1  
    16    8   16 1  
    17   10   17 1  
    18   11   18 1  
    19   12   19 1  
@<TRIPOS>SUBSTRUCTURE
     1 FHC         1

