### 
### Created by X-TOOL on Sun Sep  9 21:50:03 2018
### 

@<TRIPOS>MOLECULE
1gz9_ligand
   65    67     1     0     0
SMALL
GAST_HUCK


@<TRIPOS>ATOM
      1 C1         84.0580   39.0520   32.1980 C.3       1 NON         0.1884
      2 C2         85.0580   38.2610   31.3190 C.3       1 NON         0.1341
      3 C3         86.4940   38.8670   31.1370 C.3       1 NON         0.1140
      4 C4         87.0350   39.4220   32.5010 C.3       1 NON         0.1095
      5 C5         85.9920   40.3700   33.1510 C.3       1 NON         0.0873
      6 C6         86.4830   40.9540   34.5360 C.3       1 NON        -0.0361
      7 O1         83.6990   40.1630   31.3960 O.3       1 NON        -0.3378
      8 O2         84.4080   37.6720   30.1660 O.3       1 NON        -0.3841
      9 O3         87.3460   37.8350   30.6590 O.3       1 NON        -0.3864
     10 O4         87.3050   38.3430   33.3820 O.3       1 NON        -0.3866
     11 O5         84.6700   39.6390   33.4120 O.3       1 NON        -0.3431
     12 C1         82.7760   42.1810   30.7350 C.3       1 NON         0.1888
     13 C2         82.5960   41.0400   31.6660 C.3       1 NON         0.1406
     14 C3         81.2000   40.3830   31.2130 C.3       1 NON         0.1144
     15 C4         80.0820   41.4300   31.3420 C.3       1 NON         0.1119
     16 C5         80.4740   42.6120   30.4080 C.3       1 NON         0.1130
     17 C6         79.4910   43.7340   30.4520 C.3       1 NON         0.0730
     18 O1         84.0330   42.8220   31.1550 O.3       1 NON        -0.3401
     19 O3         80.9290   39.2470   32.0890 O.3       1 NON        -0.3864
     20 O4         79.9590   41.9390   32.6690 O.3       1 NON        -0.3865
     21 O5         81.7370   43.1500   30.8260 O.3       1 NON        -0.3405
     22 O6         79.9240   44.6680   29.4540 O.3       1 NON        -0.3924
     23 C1'        86.6530   45.9390   30.0400 C.3       1 NON         0.1854
     24 C2'        85.1640   46.3050   29.9110 C.3       1 NON         0.1339
     25 C3'        84.3530   45.2680   30.7370 C.3       1 NON         0.1144
     26 C4'        84.6490   43.8440   30.2510 C.3       1 NON         0.1184
     27 C5'        86.1590   43.5440   30.2680 C.3       1 NON         0.1134
     28 C6'        86.5000   42.2210   29.5840 C.3       1 NON         0.0730
     29 O1'        87.3940   46.8460   29.2860 O.3       1 NON        -0.3649
     30 O2'        84.8880   47.5970   30.4290 O.3       1 NON        -0.3841
     31 O3'        82.9840   45.5800   30.6260 O.3       1 NON        -0.3864
     32 O5'        86.8610   44.5770   29.5060 O.3       1 NON        -0.3407
     33 O6'        87.7560   41.7210   30.0700 O.3       1 NON        -0.3924
     34 H1         83.1934   38.4264   32.4644 H         1 NON         0.0938
     35 H2         85.2753   37.3798   31.9405 H         1 NON         0.0671
     36 H3         86.4576   39.6861   30.4037 H         1 NON         0.0648
     37 H4         87.9643   39.9813   32.3176 H         1 NON         0.0646
     38 H5         85.8115   41.2048   32.4579 H         1 NON         0.0621
     39 H6         85.7083   41.6162   34.9500 H         1 NON         0.0255
     40 H7         87.4110   41.5250   34.3849 H         1 NON         0.0255
     41 H8         86.6712   40.1271   35.2366 H         1 NON         0.0255
     42 H9         84.0218   38.3594   29.6360 H         1 NON         0.2101
     43 H10        87.3657   37.1247   31.2895 H         1 NON         0.2100
     44 H11        87.6323   38.6831   34.2065 H         1 NON         0.2100
     45 H12        82.8451   41.8148   29.7001 H         1 NON         0.0938
     46 H13        82.5757   41.3470   32.7221 H         1 NON         0.0675
     47 H14        81.2662   40.0414   30.1695 H         1 NON         0.0648
     48 H15        79.1237   40.9899   31.0290 H         1 NON         0.0647
     49 H16        80.5493   42.2370   29.3767 H         1 NON         0.0647
     50 H17        79.4921   44.2062   31.4455 H         1 NON         0.0584
     51 H18        78.4799   43.3674   30.2213 H         1 NON         0.0584
     52 H19        80.1065   38.8438   31.8375 H         1 NON         0.2100
     53 H20        79.7613   41.2251   33.2637 H         1 NON         0.2100
     54 H21        79.3303   45.4094   29.4369 H         1 NON         0.2095
     55 H22        86.9638   45.9809   31.0943 H         1 NON         0.0935
     56 H23        84.8668   46.2652   28.8527 H         1 NON         0.0671
     57 H24        84.6485   45.3423   31.7940 H         1 NON         0.0648
     58 H25        84.2551   43.7295   29.2303 H         1 NON         0.0651
     59 H26        86.5118   43.5268   31.3097 H         1 NON         0.0647
     60 H27        86.5682   42.3804   28.4978 H         1 NON         0.0584
     61 H28        85.7093   41.4868   29.7980 H         1 NON         0.0584
     62 H29        87.2618   47.7225   29.6275 H         1 NON         0.2126
     63 H30        85.1461   47.6324   31.3425 H         1 NON         0.2101
     64 H31        82.4781   44.9719   31.1521 H         1 NON         0.2100
     65 H32        87.6983   41.5812   31.0078 H         1 NON         0.2095
@<TRIPOS>BOND
     1    7    1 1  
     2    1   11 1  
     3    1    2 1  
     4    2    8 1  
     5    2    3 1  
     6    3    9 1  
     7    3    4 1  
     8    4   10 1  
     9    5    4 1  
    10   11    5 1  
    11    5    6 1  
    12   12   21 1  
    13   13   12 1  
    14   12   18 1  
    15   18   26 1  
    16   26   27 1  
    17   26   25 1  
    18   25   31 1  
    19   25   24 1  
    20   24   30 1  
    21   24   23 1  
    22   32   23 1  
    23   23   29 1  
    24   27   32 1  
    25   27   28 1  
    26   28   33 1  
    27   13   14 1  
    28   14   19 1  
    29   14   15 1  
    30   15   20 1  
    31   15   16 1  
    32   21   16 1  
    33   16   17 1  
    34   17   22 1  
    35   13    7 1  
    36    1   34 1  
    37    2   35 1  
    38    3   36 1  
    39    4   37 1  
    40    5   38 1  
    41    6   39 1  
    42    6   40 1  
    43    6   41 1  
    44    8   42 1  
    45    9   43 1  
    46   10   44 1  
    47   12   45 1  
    48   13   46 1  
    49   14   47 1  
    50   15   48 1  
    51   16   49 1  
    52   17   50 1  
    53   17   51 1  
    54   19   52 1  
    55   20   53 1  
    56   22   54 1  
    57   23   55 1  
    58   24   56 1  
    59   25   57 1  
    60   26   58 1  
    61   27   59 1  
    62   28   60 1  
    63   28   61 1  
    64   29   62 1  
    65   30   63 1  
    66   31   64 1  
    67   33   65 1  
@<TRIPOS>SUBSTRUCTURE
     1 NON         1

