### 
### Created by X-TOOL on Sun Sep  9 21:50:03 2018
### 

@<TRIPOS>MOLECULE
1gzc_ligand
   45    46     1     0     0
SMALL
GAST_HUCK


@<TRIPOS>ATOM
      1 C1         83.5890   42.7070   30.5940 C.3       1 NON         0.1884
      2 C2         83.3470   41.5450   31.5350 C.3       1 NON         0.1341
      3 C3         81.9990   40.8490   31.0880 C.3       1 NON         0.1141
      4 C4         80.8800   41.9040   31.1440 C.3       1 NON         0.1119
      5 C5         81.2420   43.0760   30.2260 C.3       1 NON         0.1130
      6 C6         80.2060   44.1980   30.2870 C.3       1 NON         0.0730
      7 O1         84.7910   43.4140   30.9710 O.3       1 NON        -0.3401
      8 O2         84.4430   40.5970   31.4980 O.3       1 NON        -0.3841
      9 O3         81.7290   39.7410   31.9440 O.3       1 NON        -0.3864
     10 O4         80.6980   42.4520   32.4430 O.3       1 NON        -0.3865
     11 O5         82.5060   43.6490   30.6340 O.3       1 NON        -0.3405
     12 O6         80.4780   45.0920   29.1980 O.3       1 NON        -0.3924
     13 C1'        87.2420   46.5170   29.5120 C.3       1 NON         0.1854
     14 C2'        85.7470   46.8320   29.4400 C.3       1 NON         0.1339
     15 C3'        85.0230   45.8400   30.3920 C.3       1 NON         0.1144
     16 C4'        85.3410   44.3870   29.9980 C.3       1 NON         0.1184
     17 C5'        86.8550   44.1320   29.9620 C.3       1 NON         0.1134
     18 C6'        87.1800   42.7380   29.3860 C.3       1 NON         0.0730
     19 O1'        87.9290   47.3930   28.6630 O.3       1 NON        -0.3649
     20 O2'        85.4500   48.1460   29.8720 O.3       1 NON        -0.3841
     21 O3'        83.6150   46.1090   30.3420 O.3       1 NON        -0.3864
     22 O5'        87.4560   45.1390   29.0630 O.3       1 NON        -0.3407
     23 O6'        88.5790   42.4900   29.4290 O.3       1 NON        -0.3924
     24 H1         83.6958   42.3177   29.5707 H         1 NON         0.0938
     25 H2         83.2422   41.9239   32.5624 H         1 NON         0.0671
     26 H3         82.0975   40.4833   30.0553 H         1 NON         0.0648
     27 H4         79.9401   41.4401   30.8103 H         1 NON         0.0647
     28 H5         81.3171   42.7056   29.1930 H         1 NON         0.0647
     29 H6         80.2886   44.7346   31.2437 H         1 NON         0.0584
     30 H7         79.1932   43.7806   30.1869 H         1 NON         0.0584
     31 H8         85.2462   41.0330   31.7570 H         1 NON         0.2101
     32 H9         80.9192   39.3240   31.6744 H         1 NON         0.2100
     33 H10        80.4709   41.7571   33.0497 H         1 NON         0.2100
     34 H11        79.8482   45.8033   29.2087 H         1 NON         0.2095
     35 H12        87.6029   46.6353   30.5443 H         1 NON         0.0935
     36 H13        85.3934   46.6995   28.4068 H         1 NON         0.0671
     37 H14        85.3783   46.0058   31.4197 H         1 NON         0.0648
     38 H15        84.9107   44.1953   29.0040 H         1 NON         0.0651
     39 H16        87.2717   44.2218   30.9760 H         1 NON         0.0647
     40 H17        86.8367   42.6897   28.3421 H         1 NON         0.0584
     41 H18        86.6592   41.9719   29.9791 H         1 NON         0.0584
     42 H19        88.8571   47.1913   28.6856 H         1 NON         0.2126
     43 H20        84.5107   48.2843   29.8389 H         1 NON         0.2101
     44 H21        83.1616   45.5301   30.9435 H         1 NON         0.2100
     45 H22        89.0321   43.1482   28.9153 H         1 NON         0.2095
@<TRIPOS>BOND
     1    1   11 1  
     2    1    7 1  
     3    1    2 1  
     4    2    8 1  
     5    2    3 1  
     6    3    9 1  
     7    3    4 1  
     8    4   10 1  
     9    4    5 1  
    10    5   11 1  
    11    5    6 1  
    12    6   12 1  
    13    7   16 1  
    14   16   17 1  
    15   16   15 1  
    16   15   21 1  
    17   15   14 1  
    18   14   20 1  
    19   14   13 1  
    20   13   22 1  
    21   13   19 1  
    22   22   17 1  
    23   17   18 1  
    24   18   23 1  
    25    1   24 1  
    26    2   25 1  
    27    3   26 1  
    28    4   27 1  
    29    5   28 1  
    30    6   29 1  
    31    6   30 1  
    32    8   31 1  
    33    9   32 1  
    34   10   33 1  
    35   12   34 1  
    36   13   35 1  
    37   14   36 1  
    38   15   37 1  
    39   16   38 1  
    40   17   39 1  
    41   18   40 1  
    42   18   41 1  
    43   19   42 1  
    44   20   43 1  
    45   21   44 1  
    46   23   45 1  
@<TRIPOS>SUBSTRUCTURE
     1 NON         1

