### 
### Created by X-TOOL on Mon Sep 10 21:12:48 2018
### 

@<TRIPOS>MOLECULE
1gzg_ligand
   15    14     1     0     0
SMALL
GAST_HUCK


@<TRIPOS>ATOM
      1 C4        118.9690   33.6120  -28.3970 C.2       1 LAF         0.1374
      2 C5        117.9510   34.0230  -29.4770 C.3       1 LAF         0.1632
      3 C3        118.5230   32.6710  -27.2660 C.3       1 LAF         0.0352
      4 C2        119.6580   32.3770  -26.2840 C.3       1 LAF         0.0161
      5 C1        120.2260   30.9650  -26.4440 C.2       1 LAF         0.0371
      6 O4        120.0490   33.8910  -28.2690 O.2       1 LAF        -0.3887
      7 O1        119.3850   30.0360  -26.5040 O.co2     1 LAF        -0.5688
      8 OH1       121.4660   30.8210  -26.5050 O.co2     1 LAF        -0.5688
      9 F         118.3360   34.5170  -30.6940 F         1 LAF        -0.2266
     10 H1        117.3144   34.7951  -29.0203 H         1 LAF         0.0852
     11 H2        117.3479   33.1273  -29.6866 H         1 LAF         0.0852
     12 H3        118.1805   31.7232  -27.7069 H         1 LAF         0.0513
     13 H4        117.6931   33.1419  -26.7188 H         1 LAF         0.0513
     14 H5        119.2743   32.4879  -25.2591 H         1 LAF         0.0456
     15 H6        120.4669   33.1030  -26.4533 H         1 LAF         0.0456
@<TRIPOS>BOND
     1    1    2 1  
     2    1    3 1  
     3    1    6 2  
     4    2    9 1  
     5    3    4 1  
     6    4    5 1  
     7    5    7 ar 
     8    5    8 ar 
     9    2   10 1  
    10    2   11 1  
    11    3   12 1  
    12    3   13 1  
    13    4   14 1  
    14    4   15 1  
@<TRIPOS>SUBSTRUCTURE
     1 LAF         1

