### 
### Created by X-TOOL on Mon Sep 10 21:12:50 2018
### 

@<TRIPOS>MOLECULE
1h00_ligand
   54    56     1     0     0
SMALL
GAST_HUCK


@<TRIPOS>ATOM
      1 C22         3.7950   28.5970    6.0100 C.ar      1 FAP        -0.0463
      2 C1          0.3260   33.1000    7.8560 C.ar      1 FAP         0.0584
      3 C5          1.6140   31.1970    7.6890 C.ar      1 FAP         0.1313
      4 C4          0.7130   30.5170    8.5790 C.ar      1 FAP         0.0290
      5 C3         -0.4010   31.2770    9.0660 C.ar      1 FAP         0.1319
      6 C17         3.4120   29.2380    7.2190 C.ar      1 FAP         0.0529
      7 C18         3.6480   28.5750    8.4680 C.ar      1 FAP        -0.0463
      8 C19         4.2480   27.2990    8.5010 C.ar      1 FAP        -0.0420
      9 C20         4.6280   26.6560    7.2930 C.ar      1 FAP         0.0798
     10 N2         -0.5690   32.5630    8.6890 N.ar      1 FAP        -0.2660
     11 N6          1.3960   32.4840    7.3450 N.ar      1 FAP        -0.2660
     12 N7         -1.3980   30.7320    9.9800 N.pl3     1 FAP        -0.2570
     13 N16         2.7940   30.5570    7.1260 N.pl3     1 FAP        -0.2630
     14 C21         4.3990   27.3140    6.0420 C.ar      1 FAP        -0.0420
     15 O23         5.2070   25.3980    7.4400 O.3       1 FAP        -0.3225
     16 C24         4.4640   24.1590    7.6170 C.3       1 FAP         0.0988
     17 C11        -1.7340   27.4480   12.7920 C.ar      1 FAP        -0.0769
     18 C10        -2.8640   27.9370   12.0910 C.ar      1 FAP        -0.0415
     19 C9         -2.7310   29.0150   11.1770 C.ar      1 FAP         0.1532
     20 C8         -1.4540   29.6170   10.9470 C.ar      1 FAP         0.1319
     21 C12        -0.4620   28.0280   12.5840 C.ar      1 FAP        -0.0415
     22 C13        -0.3090   29.1050   11.6740 C.ar      1 FAP         0.1532
     23 F14        -3.8490   29.4590   10.5210 F         1 FAP        -0.1918
     24 F15         0.9450   29.6210   11.5160 F         1 FAP        -0.1918
     25 C25         5.3960   22.9350    7.6620 C.3       1 FAP         0.1219
     26 C26         4.7670   21.5370    7.4440 C.3       1 FAP        -0.0032
     27 N27         5.6170   20.3410    7.7610 N.4       1 FAP         0.2328
     28 C28         6.4420   19.8810    6.6120 C.3       1 FAP        -0.0433
     29 C29         4.8050   19.2050    8.2910 C.3       1 FAP        -0.0433
     30 O30         6.2510   22.9720    8.7540 O.3       1 FAP        -0.3839
     31 H1          3.6250   29.0903    5.0598 H         1 FAP         0.0511
     32 H2          0.1697   34.1331    7.5671 H         1 FAP         0.1046
     33 H3          0.8677   29.4835    8.8670 H         1 FAP         0.0573
     34 H4          3.3628   29.0587    9.3952 H         1 FAP         0.0511
     35 H5          4.4197   26.8073    9.4517 H         1 FAP         0.0516
     36 H6         -2.2844   31.2552    9.9417 H         1 FAP         0.2133
     37 H7          3.3231   31.1911    6.5104 H         1 FAP         0.2124
     38 H8          4.6882   26.8299    5.1162 H         1 FAP         0.0516
     39 H9          3.7624   24.0416    6.7780 H         1 FAP         0.0637
     40 H10         3.9014   24.2129    8.5607 H         1 FAP         0.0637
     41 H11        -1.8454   26.6263   13.4902 H         1 FAP         0.0500
     42 H12        -3.8359   27.4853   12.2536 H         1 FAP         0.0540
     43 H13         0.3993   27.6485   13.1217 H         1 FAP         0.0540
     44 H14         6.0488   23.0678    6.7867 H         1 FAP         0.0674
     45 H15         4.4792   21.4660    6.3847 H         1 FAP         0.0841
     46 H16         3.8667   21.4783    8.0733 H         1 FAP         0.0841
     47 H17         6.2539   20.6225    8.4898 H         1 FAP         0.2029
     48 H18         7.0362   19.0061    6.9143 H         1 FAP         0.0777
     49 H19         7.1163   20.6911    6.2971 H         1 FAP         0.0777
     50 H20         5.7837   19.6056    5.7749 H         1 FAP         0.0777
     51 H21         4.1980   19.5529    9.1399 H         1 FAP         0.0777
     52 H22         5.4755   18.3996    8.6253 H         1 FAP         0.0777
     53 H23         4.1434   18.8259    7.4982 H         1 FAP         0.0777
     54 H24         6.6094   23.8471    8.8447 H         1 FAP         0.2101
@<TRIPOS>BOND
     1    6    1 ar 
     2    1   14 ar 
     3    4    3 ar 
     4    5    4 ar 
     5    6    7 ar 
     6   13    6 1  
     7    7    8 ar 
     8    8    9 ar 
     9   14    9 ar 
    10    9   15 1  
    11    3   13 1  
    12   15   16 1  
    13   16   25 1  
    14   18   17 ar 
    15   21   17 ar 
    16   19   18 ar 
    17   20   19 ar 
    18   19   23 1  
    19   20   22 ar 
    20   22   21 ar 
    21   22   24 1  
    22   25   26 1  
    23   25   30 1  
    24   26   27 1  
    25   27   28 1  
    26   27   29 1  
    27   12   20 1  
    28    5   12 1  
    29    3   11 ar 
    30   11    2 ar 
    31    5   10 ar 
    32   10    2 ar 
    33    1   31 1  
    34    2   32 1  
    35    4   33 1  
    36    7   34 1  
    37    8   35 1  
    38   12   36 1  
    39   13   37 1  
    40   14   38 1  
    41   16   39 1  
    42   16   40 1  
    43   17   41 1  
    44   18   42 1  
    45   21   43 1  
    46   25   44 1  
    47   26   45 1  
    48   26   46 1  
    49   27   47 1  
    50   28   48 1  
    51   28   49 1  
    52   28   50 1  
    53   29   51 1  
    54   29   52 1  
    55   29   53 1  
    56   30   54 1  
@<TRIPOS>SUBSTRUCTURE
     1 FAP         1

