### 
### Created by X-TOOL on Mon Sep 10 21:12:50 2018
### 

@<TRIPOS>MOLECULE
1h01_ligand
   54    56     1     0     0
SMALL
GAST_HUCK


@<TRIPOS>ATOM
      1 H1          3.1463   22.1543    7.1147 H         1 FAL         0.0637
      2 H2          3.3330   22.7088    8.8130 H         1 FAL         0.0637
      3 H3          0.2817   32.3671    6.8346 H         1 FAL         0.0848
      4 H4         -1.3753   31.1997    8.3755 H         1 FAL         0.0582
      5 H5         -0.7613   23.4620   10.8298 H         1 FAL         0.0526
      6 H6         -1.3833   25.2717   12.4428 H         1 FAL         0.0593
      7 H7          3.1126   24.8393    9.0132 H         1 FAL         0.0516
      8 H8          2.3244   27.1482    8.5705 H         1 FAL         0.0512
      9 H9         -0.4410   26.3793    7.6737 H         1 FAL         0.0541
     10 H10         5.4447   24.9300    5.3544 H         1 FAL         0.0516
     11 H11         4.6498   27.2594    4.9051 H         1 FAL         0.0512
     12 H12        -1.8955   29.0879    9.5072 H         1 FAL         0.2164
     13 H13         3.4693   29.3145    5.9100 H         1 FAL         0.2148
     14 H14         3.8779   20.3720    8.7249 H         1 FAL         0.0674
     15 H15         6.4499   22.0015    8.9364 H         1 FAL         0.0841
     16 H16         6.4335   20.2127    9.0996 H         1 FAL         0.0841
     17 H17         5.3857   22.2473   10.9016 H         1 FAL         0.2029
     18 H18         6.4677   21.0358   12.6549 H         1 FAL         0.0777
     19 H19         7.5931   21.5621   11.3577 H         1 FAL         0.0777
     20 H20         7.0195   19.8608   11.4134 H         1 FAL         0.0777
     21 H21         3.5184   20.7585   10.5559 H         1 FAL         0.0777
     22 H22         4.1568   20.7405   12.2348 H         1 FAL         0.0777
     23 H23         4.5863   19.4191   11.0963 H         1 FAL         0.0777
     24 C22         3.8690   22.3600    7.9180 C.3       1 FAL         0.0989
     25 N1          1.5450   30.6830    6.6430 N.ar      1 FAL        -0.2696
     26 C2          0.4460   31.3340    7.1190 C.ar      1 FAL         0.0009
     27 C6          1.7120   29.4100    7.0100 C.ar      1 FAL         0.1928
     28 C4         -0.2050   29.3310    8.2990 C.ar      1 FAL         0.1339
     29 C3         -0.5010   30.6900    7.9870 C.ar      1 FAL        -0.0020
     30 N5          0.8880   28.7420    7.8090 N.ar      1 FAL        -0.2352
     31 C11        -0.8260   24.4910   10.4950 C.ar      1 FAL        -0.0589
     32 C10        -1.1770   25.5160   11.4070 C.ar      1 FAL        -0.0569
     33 C9         -1.2590   26.8640   10.9660 C.ar      1 FAL         0.0629
     34 C8         -0.9960   27.1890    9.6070 C.ar      1 FAL         0.0786
     35 C12        -0.5610   24.8170    9.1480 C.ar      1 FAL         0.0312
     36 C17         3.4460   25.3620    8.1240 C.ar      1 FAL        -0.0419
     37 C16         2.9970   26.6680    7.8690 C.ar      1 FAL        -0.0461
     38 C13        -0.6460   26.1450    8.7120 C.ar      1 FAL        -0.0238
     39 C15         3.4140   27.3730    6.6980 C.ar      1 FAL         0.0549
     40 C18         4.3400   24.7220    7.2150 C.ar      1 FAL         0.0798
     41 C19         4.7680   25.4130    6.0500 C.ar      1 FAL        -0.0419
     42 C20         4.3130   26.7350    5.7920 C.ar      1 FAL        -0.0461
     43 O21         4.7750   23.4180    7.4730 O.3       1 FAL        -0.3225
     44 N7         -1.0780   28.5690    9.1560 N.pl3     1 FAL        -0.2552
     45 N14         2.8820   28.7260    6.5180 N.pl3     1 FAL        -0.2504
     46 CL29       -1.6820   28.1000   12.1320 Cl        1 FAL        -0.0791
     47 CL30       -0.1100   23.5850    7.9980 Cl        1 FAL        -0.0735
     48 C23         4.6060   21.0550    8.2630 C.3       1 FAL         0.1219
     49 C24         5.8480   21.1330    9.2420 C.3       1 FAL        -0.0032
     50 N25         5.5810   21.2720   10.7380 N.4       1 FAL         0.2328
     51 C26         6.7410   20.9090   11.5970 C.3       1 FAL        -0.0433
     52 C27         4.3810   20.4960   11.1860 C.3       1 FAL        -0.0433
     53 O28         5.0220   20.5300    7.0180 O.3       1 FAL        -0.3839
     54 H24         4.2769   20.4831    6.4305 H         1 FAL         0.2101
@<TRIPOS>BOND
     1   24    1 1  
     2   24    2 1  
     3   26    3 1  
     4   29    4 1  
     5   31    5 1  
     6   32    6 1  
     7   36    7 1  
     8   37    8 1  
     9   38    9 1  
    10   41   10 1  
    11   42   11 1  
    12   44   12 1  
    13   45   13 1  
    14   48   14 1  
    15   49   15 1  
    16   49   16 1  
    17   50   17 1  
    18   51   18 1  
    19   51   19 1  
    20   51   20 1  
    21   52   21 1  
    22   52   22 1  
    23   52   23 1  
    24   43   24 1  
    25   24   48 1  
    26   25   26 ar 
    27   27   25 ar 
    28   26   29 ar 
    29   30   27 ar 
    30   32   31 ar 
    31   35   31 ar 
    32   33   32 ar 
    33   34   33 ar 
    34   34   38 ar 
    35   38   35 ar 
    36   37   36 ar 
    37   39   42 ar 
    38   41   40 ar 
    39   40   43 1  
    40   42   41 ar 
    41   45   39 1  
    42   48   49 1  
    43   48   53 1  
    44   49   50 1  
    45   50   51 1  
    46   50   52 1  
    47   35   47 1  
    48   33   46 1  
    49   27   45 1  
    50   44   34 1  
    51   28   44 1  
    52   36   40 ar 
    53   39   37 ar 
    54   30   28 ar 
    55   29   28 ar 
    56   53   54 1  
@<TRIPOS>SUBSTRUCTURE
     1 FAL         1

