### 
### Created by X-TOOL on Mon Sep 10 21:12:50 2018
### 

@<TRIPOS>MOLECULE
1h08_ligand
   54    56     1     0     0
SMALL
GAST_HUCK


@<TRIPOS>ATOM
      1 C22         8.6630   -9.9020    5.9770 C.3       1 BYP         0.0989
      2 N1         11.4800  -10.7260   14.2040 N.ar      1 BYP        -0.2659
      3 C2         12.5810  -10.2190   14.8120 C.ar      1 BYP         0.0108
      4 C6         11.2560  -10.3670   12.9290 C.ar      1 BYP         0.1957
      5 C4         13.1270   -9.0150   12.7770 C.ar      1 BYP         0.1426
      6 C3         13.4660   -9.3270   14.1210 C.ar      1 BYP         0.0707
      7 N5         12.0310   -9.5390   12.2250 N.ar      1 BYP        -0.2323
      8 C11        13.9900   -6.3230    8.1010 C.ar      1 BYP        -0.0732
      9 C10        14.4830   -5.6150    9.2260 C.ar      1 BYP        -0.0713
     10 C9         14.4700   -6.2250   10.5100 C.ar      1 BYP        -0.0380
     11 C8         13.9660   -7.5490   10.6790 C.ar      1 BYP         0.0647
     12 C12        13.4830   -7.6400    8.2510 C.ar      1 BYP        -0.0713
     13 C17         7.9800  -11.6300    9.2030 C.ar      1 BYP        -0.0418
     14 C16         8.5330  -11.7500   10.5060 C.ar      1 BYP        -0.0459
     15 C13        13.4690   -8.2530    9.5340 C.ar      1 BYP        -0.0380
     16 C15         9.4910  -10.8060   10.9570 C.ar      1 BYP         0.0555
     17 C18         8.3860  -10.5570    8.3360 C.ar      1 BYP         0.0799
     18 C19         9.3490   -9.6100    8.7970 C.ar      1 BYP        -0.0418
     19 C20         9.8960   -9.7320   10.0930 C.ar      1 BYP        -0.0459
     20 O21         7.8090  -10.4640    7.0410 O.3       1 BYP        -0.3224
     21 N7         13.9800   -8.1050   12.0260 N.pl3     1 BYP        -0.2545
     22 N14        10.0780  -10.9250   12.2940 N.pl3     1 BYP        -0.2490
     23 BR         15.0190   -8.6080   14.9720 Br        1 BYP        -0.0543
     24 C23         7.7590   -9.4630    4.7860 C.3       1 BYP         0.1219
     25 C24         6.5950  -10.4980    4.5810 C.3       1 BYP        -0.0032
     26 N25         5.9320  -10.5250    3.2220 N.4       1 BYP         0.2328
     27 C26         5.0380   -9.3710    2.9190 C.3       1 BYP        -0.0433
     28 C27         6.7980  -10.9330    2.0780 C.3       1 BYP        -0.0433
     29 O28         7.2130   -8.1780    5.0690 O.3       1 BYP        -0.3839
     30 H1          9.3788  -10.6645    5.6362 H         1 BYP         0.0637
     31 H2          9.2119   -9.0312    6.3649 H         1 BYP         0.0637
     32 H3         12.7959  -10.4929   15.8386 H         1 BYP         0.0878
     33 H4         14.0003   -5.8566    7.1225 H         1 BYP         0.0520
     34 H5         14.8696   -4.6093    9.1072 H         1 BYP         0.0588
     35 H6         14.8462   -5.6796   11.3679 H         1 BYP         0.0537
     36 H7         13.1068   -8.1781    7.3884 H         1 BYP         0.0588
     37 H8          7.2475  -12.3517    8.8602 H         1 BYP         0.0516
     38 H9          8.2234  -12.5616   11.1545 H         1 BYP         0.0513
     39 H10        13.0802   -9.2586    9.6466 H         1 BYP         0.0537
     40 H11         9.6607   -8.7966    8.1518 H         1 BYP         0.0516
     41 H12        10.6269   -9.0100   10.4386 H         1 BYP         0.0513
     42 H13        14.7848   -7.7759   12.5781 H         1 BYP         0.2171
     43 H14         9.5359  -11.5386   12.9189 H         1 BYP         0.2157
     44 H15         8.3636   -9.4107    3.8685 H         1 BYP         0.0674
     45 H16         5.8168  -10.2741    5.3255 H         1 BYP         0.0841
     46 H17         7.0055  -11.5009    4.7699 H         1 BYP         0.0841
     47 H18         5.2886  -11.2964    3.3055 H         1 BYP         0.2029
     48 H19         4.6117   -9.4919    1.9122 H         1 BYP         0.0777
     49 H20         5.6175   -8.4370    2.9620 H         1 BYP         0.0777
     50 H21         4.2251   -9.3326    3.6591 H         1 BYP         0.0777
     51 H22         7.4248  -11.7856    2.3785 H         1 BYP         0.0777
     52 H23         7.4413  -10.0898    1.7862 H         1 BYP         0.0777
     53 H24         6.1665  -11.2246    1.2258 H         1 BYP         0.0777
     54 H25         6.6892   -8.2250    5.8601 H         1 BYP         0.2101
@<TRIPOS>BOND
     1   20    1 1  
     2    1   24 1  
     3    2    3 ar 
     4    4    2 ar 
     5    3    6 ar 
     6    7    4 ar 
     7    9    8 ar 
     8   12    8 ar 
     9   10    9 ar 
    10   11   10 ar 
    11   11   15 ar 
    12   15   12 ar 
    13   14   13 ar 
    14   16   19 ar 
    15   18   17 ar 
    16   17   20 1  
    17   19   18 ar 
    18   22   16 1  
    19   24   25 1  
    20   24   29 1  
    21   25   26 1  
    22   26   27 1  
    23   26   28 1  
    24    6   23 1  
    25    4   22 1  
    26   21   11 1  
    27    5   21 1  
    28   13   17 ar 
    29   16   14 ar 
    30    7    5 ar 
    31    6    5 ar 
    32    1   30 1  
    33    1   31 1  
    34    3   32 1  
    35    8   33 1  
    36    9   34 1  
    37   10   35 1  
    38   12   36 1  
    39   13   37 1  
    40   14   38 1  
    41   15   39 1  
    42   18   40 1  
    43   19   41 1  
    44   21   42 1  
    45   22   43 1  
    46   24   44 1  
    47   25   45 1  
    48   25   46 1  
    49   26   47 1  
    50   27   48 1  
    51   27   49 1  
    52   27   50 1  
    53   28   51 1  
    54   28   52 1  
    55   28   53 1  
    56   29   54 1  
@<TRIPOS>SUBSTRUCTURE
     1 BYP         1

