### 
### Created by X-TOOL on Mon Sep 10 21:12:49 2018
### 

@<TRIPOS>MOLECULE
1h0r_ligand
   21    21     1     0     0
SMALL
GAST_HUCK


@<TRIPOS>ATOM
      1 C2         30.0170   72.0450   20.6080 C.3       1 FA1        -0.0257
      2 C3         29.1550   73.2480   20.2380 C.3       1 FA1         0.0989
      3 O3         29.8850   74.4610   20.6060 O.3       1 FA1        -0.3849
      4 C4         28.9840   73.2600   18.7050 C.3       1 FA1         0.1558
      5 O4         28.1760   74.3800   18.3500 O.3       1 FA1        -0.3559
      6 C5         28.5740   71.9340   18.0660 C.2       1 FA1         0.0179
      7 C6         28.8250   70.8150   18.6800 C.2       1 FA1        -0.0502
      8 C          30.1910   69.5200   20.2350 C.2       1 FA1         0.0192
      9 O1         31.4300   69.6150   20.5250 O.co2     1 FA1        -0.5675
     10 O30        28.1950   70.6710   21.0010 O.3       1 FA1        -0.4422
     11 O2         29.6200   68.3370   20.1760 O.co2     1 FA1        -0.5675
     12 C1         29.3490   70.7600   20.1040 C.3       1 FA1         0.0728
     13 H1         30.1272   71.9958   21.7013 H         1 FA1         0.0171
     14 H2         31.0088   72.1485   20.1437 H         1 FA1         0.0171
     15 H3         28.1797   73.2039   20.7448 H         1 FA1         0.0667
     16 H4         29.3634   75.2231   20.3830 H         1 FA1         0.2104
     17 H5         29.9834   73.4660   18.2942 H         1 FA1         0.1059
     18 H6         28.0618   74.4005   17.4071 H         1 FA1         0.2180
     19 H7         28.0730   71.9257   17.0991 H         1 FA1         0.1561
     20 H8         28.6522   69.8790   18.1508 H         1 FA1         0.0503
     21 H9         28.4969   70.6352   21.9010 H         1 FA1         0.1879
@<TRIPOS>BOND
     1    1    2 1  
     2   12    1 1  
     3    2    3 1  
     4    2    4 1  
     5    4    5 1  
     6    6    4 1  
     7    7    6 2  
     8   12    7 1  
     9    8    9 ar 
    10    8   11 ar 
    11    8   12 1  
    12   12   10 1  
    13    1   13 1  
    14    1   14 1  
    15    2   15 1  
    16    3   16 1  
    17    4   17 1  
    18    5   18 1  
    19    6   19 1  
    20    7   20 1  
    21   10   21 1  
@<TRIPOS>SUBSTRUCTURE
     1 FA1         1

