### 
### Created by X-TOOL on Mon Sep 10 21:12:50 2018
### 

@<TRIPOS>MOLECULE
1h0w_ligand
   34    36     1     0     0
SMALL
GAST_HUCK


@<TRIPOS>ATOM
      1 N1          2.3310   29.3130    7.8490 N.ar      1 207        -0.2767
      2 C2          2.8180   30.3540    7.1210 C.ar      1 207         0.0791
      3 C3          2.2360   31.6110    7.1280 C.ar      1 207        -0.0122
      4 C4          1.1310   31.8740    7.8700 C.ar      1 207         0.0801
      5 C5          0.5890   30.7980    8.6390 C.ar      1 207         0.0805
      6 C6          1.2370   29.4720    8.6320 C.ar      1 207         0.1569
      7 O6          0.7080   28.4560    9.4080 O.3       1 207        -0.3026
      8 C9          1.4630   27.2530    9.5560 C.3       1 207         0.0785
      9 N7         -0.4760   31.2370    9.2900 N.2       1 207        -0.3083
     10 C8         -0.6330   32.5150    8.9650 C.2       1 207         0.0994
     11 N9          0.3310   32.9020    8.1040 N.pl3     1 207        -0.2525
     12 N2          3.9270   30.2130    6.3400 N.pl3     1 207        -0.3312
     13 C10         0.9110   26.4560   10.7230 C.3       1 207        -0.0045
     14 C11        -0.3420   25.7350   10.2480 C.3       1 207        -0.0395
     15 C12        -0.0120   24.2850    9.9480 C.3       1 207        -0.0360
     16 C13         0.3330   23.5630   11.2370 C.2       1 207        -0.0986
     17 C14         1.5360   24.2230   11.9030 C.2       1 207        -0.0983
     18 C15         2.0040   25.5280   11.2430 C.3       1 207        -0.0310
     19 H1          2.6726   32.4012    6.5280 H         1 207         0.0407
     20 H2          2.5174   27.5018    9.7468 H         1 207         0.0625
     21 H3          1.3879   26.6562    8.6350 H         1 207         0.0625
     22 H4         -1.4270   33.1591    9.3401 H         1 207         0.1306
     23 H5          0.4283   33.8427    7.6960 H         1 207         0.2343
     24 H6          4.2794   31.0139    5.7966 H         1 207         0.1738
     25 H7          4.4122   29.3056    6.2935 H         1 207         0.1738
     26 H8          0.6287   27.1429   11.5345 H         1 207         0.0348
     27 H9         -0.7203   26.2205    9.3363 H         1 207         0.0290
     28 H10        -1.1106   25.7805   11.0336 H         1 207         0.0290
     29 H11         0.8468   24.2396    9.2621 H         1 207         0.0388
     30 H12        -0.8816   23.8013    9.4793 H         1 207         0.0388
     31 H13        -0.2008   22.6989   11.6297 H         1 207         0.0450
     32 H14         2.0255   23.8010   12.7795 H         1 207         0.0450
     33 H15         2.5915   26.0868   11.9864 H         1 207         0.0392
     34 H16         2.6482   25.2603   10.3925 H         1 207         0.0392
@<TRIPOS>BOND
     1    1    2 ar 
     2    1    6 ar 
     3    2    3 ar 
     4    2   12 1  
     5    3    4 ar 
     6    4    5 ar 
     7    4   11 1  
     8    5    6 ar 
     9    5    9 1  
    10    6    7 1  
    11    7    8 1  
    12    8   13 1  
    13    9   10 2  
    14   10   11 1  
    15   13   14 1  
    16   13   18 1  
    17   14   15 1  
    18   15   16 1  
    19   16   17 2  
    20   17   18 1  
    21    3   19 1  
    22    8   20 1  
    23    8   21 1  
    24   10   22 1  
    25   11   23 1  
    26   12   24 1  
    27   12   25 1  
    28   13   26 1  
    29   14   27 1  
    30   14   28 1  
    31   15   29 1  
    32   15   30 1  
    33   16   31 1  
    34   17   32 1  
    35   18   33 1  
    36   18   34 1  
@<TRIPOS>SUBSTRUCTURE
     1 207         1

