### 
### Created by X-TOOL on Mon Sep 10 21:12:49 2018
### 

@<TRIPOS>MOLECULE
1h1b_ligand
   60    62     1     0     0
SMALL
GAST_HUCK


@<TRIPOS>ATOM
      1 O3         17.6300   13.2150   24.7210 O.2       1 151        -0.3965
      2 C2         18.2600   12.7710   23.7530 C.2       1 151         0.1957
      3 N1         17.8180   11.7320   22.9620 N.am      1 151        -0.2684
      4 C26        18.6990   10.8960   22.1770 C.3       1 151         0.0352
      5 C28        17.8690    9.6140   21.8950 C.3       1 151        -0.0106
      6 C29        16.7790    9.7590   22.9390 C.3       1 151         0.0647
      7 N2         17.4060    9.4000   24.1670 N.am      1 151        -0.2465
      8 S1         16.3980    8.9010   25.4570 S.o2      1 151         0.0365
      9 C3         14.7570    8.4460   24.9870 C.3       1 151         0.0732
     10 O1         17.2610    7.8450   26.0790 O.2       1 151        -0.1558
     11 O2         16.3070   10.1150   26.3840 O.2       1 151        -0.1558
     12 C8         16.4560   11.2700   22.9470 C.3       1 151         0.0819
     13 C7         15.6610   11.6400   21.6890 C.3       1 151         0.0575
     14 C27        15.2980   13.1440   21.5020 C.3       1 151        -0.0260
     15 C1         14.4650   13.5680   22.7170 C.3       1 151        -0.0602
     16 C17        14.5500   13.3210   20.1680 C.3       1 151        -0.0602
     17 C30        14.3650   10.7910   21.6650 C.2       1 151         0.1047
     18 O5         13.3700   10.8480   22.4290 O.2       1 151        -0.3745
     19 C4         19.5570   13.1940   23.5860 C.2       1 151         0.0958
     20 N3         20.2880   13.2790   22.3560 N.2       1 151        -0.2962
     21 C5         21.5580   13.6570   22.8740 C.2       1 151         0.2281
     22 O4         21.6200   13.7970   24.2460 O.3       1 151        -0.2166
     23 C6         20.3710   13.4650   24.6900 C.2       1 151         0.1201
     24 C9         22.7260   13.9160   21.9860 C.3       1 151         0.0579
     25 N4         23.4980   12.7390   21.6410 N.4       1 151         0.2537
     26 C11        22.9720   11.9210   20.5440 C.3       1 151        -0.0297
     27 C13        23.7410   12.3760   19.3100 C.3       1 151        -0.0077
     28 C14        25.1290   12.4090   19.9180 C.3       1 151        -0.0077
     29 C12        24.8700   13.1240   21.2540 C.3       1 151        -0.0297
     30 H1         19.6104   10.6525   22.7427 H         1 151         0.0522
     31 H2         18.9738   11.3960   21.2365 H         1 151         0.0522
     32 H3         18.4636    8.7020   22.0520 H         1 151         0.0304
     33 H4         17.4573    9.6123   20.8750 H         1 151         0.0304
     34 H5         15.8914    9.1438   22.7297 H         1 151         0.0536
     35 H6         18.3998    9.4382   24.2715 H         1 151         0.1672
     36 H7         14.1908    8.1423   25.8799 H         1 151         0.0482
     37 H8         14.7983    7.6075   24.2763 H         1 151         0.0482
     38 H9         14.2601    9.3049   24.5123 H         1 151         0.0482
     39 H10        15.9007   11.5900   23.8410 H         1 151         0.0605
     40 H11        16.2790   11.3545   20.8249 H         1 151         0.0555
     41 H12        16.2175   13.7470   21.4713 H         1 151         0.0324
     42 H13        14.1889   14.6284   22.6202 H         1 151         0.0234
     43 H14        15.0552   13.4251   23.6342 H         1 151         0.0234
     44 H15        13.5532   12.9549   22.7684 H         1 151         0.0234
     45 H16        15.1982   13.0008   19.3389 H         1 151         0.0234
     46 H17        14.2815   14.3795   20.0358 H         1 151         0.0234
     47 H18        13.6360   12.7091   20.1761 H         1 151         0.0234
     48 H19        14.3094   10.0415   20.8769 H         1 151         0.1352
     49 H20        20.0605   13.4190   25.7328 H         1 151         0.1078
     50 H21        23.3935   14.6259   22.4963 H         1 151         0.1080
     51 H22        22.3544   14.3671   21.0541 H         1 151         0.1080
     52 H23        23.5395   12.1599   22.4650 H         1 151         0.2055
     53 H24        21.8938   12.0957   20.4139 H         1 151         0.0815
     54 H25        23.1497   10.8530   20.7383 H         1 151         0.0815
     55 H26        23.4168   13.3673   18.9605 H         1 151         0.0319
     56 H27        23.6663   11.6534   18.4840 H         1 151         0.0319
     57 H28        25.8287   12.9780   19.2883 H         1 151         0.0319
     58 H29        25.5211   11.3936   20.0766 H         1 151         0.0319
     59 H30        25.5924   12.7931   22.0147 H         1 151         0.0815
     60 H31        24.9435   14.2143   21.1283 H         1 151         0.0815
@<TRIPOS>BOND
     1    1    2 2  
     2    2    3 am 
     3    2   19 1  
     4    3    4 1  
     5    3   12 1  
     6    4    5 1  
     7    5    6 1  
     8    6    7 1  
     9    6   12 1  
    10    7    8 am 
    11    8    9 1  
    12    8   10 2  
    13    8   11 2  
    14   12   13 1  
    15   13   14 1  
    16   13   17 1  
    17   14   15 1  
    18   14   16 1  
    19   17   18 2  
    20   19   20 1  
    21   19   23 2  
    22   20   21 2  
    23   21   22 1  
    24   21   24 1  
    25   22   23 1  
    26   24   25 1  
    27   25   26 1  
    28   25   29 1  
    29   26   27 1  
    30   27   28 1  
    31   28   29 1  
    32    4   30 1  
    33    4   31 1  
    34    5   32 1  
    35    5   33 1  
    36    6   34 1  
    37    7   35 1  
    38    9   36 1  
    39    9   37 1  
    40    9   38 1  
    41   12   39 1  
    42   13   40 1  
    43   14   41 1  
    44   15   42 1  
    45   15   43 1  
    46   15   44 1  
    47   16   45 1  
    48   16   46 1  
    49   16   47 1  
    50   17   48 1  
    51   23   49 1  
    52   24   50 1  
    53   24   51 1  
    54   25   52 1  
    55   26   53 1  
    56   26   54 1  
    57   27   55 1  
    58   27   56 1  
    59   28   57 1  
    60   28   58 1  
    61   29   59 1  
    62   29   60 1  
@<TRIPOS>SUBSTRUCTURE
     1 151         1

