### 
### Created by X-TOOL on Mon Sep 10 21:12:49 2018
### 

@<TRIPOS>MOLECULE
1h1p_ligand
   35    37     1     0     0
SMALL
GAST_HUCK


@<TRIPOS>ATOM
      1 N1         33.3860   45.1310   18.1090 N.ar      1 CMG        -0.2437
      2 C2         33.8910   44.4080   16.9780 C.ar      1 CMG         0.1558
      3 N3         34.6070   45.0840   16.1150 N.ar      1 CMG        -0.2609
      4 C4         34.8710   46.4680   16.3200 C.ar      1 CMG         0.1436
      5 C5         34.3380   47.0780   17.3880 C.ar      1 CMG         0.1035
      6 C6         33.5680   46.3310   18.3990 C.ar      1 CMG         0.1748
      7 O6         33.0800   46.9870   19.4520 O.3       1 CMG        -0.2930
      8 C9         32.7960   46.3000   20.6500 C.3       1 CMG         0.0801
      9 N7         34.7930   48.4110   17.2250 N.2       1 CMG        -0.3024
     10 C8         35.5460   48.4800   16.1920 C.2       1 CMG         0.1030
     11 N9         35.5840   47.3040   15.6090 N.pl3     1 CMG        -0.2405
     12 N2         33.5970   43.1160   16.8860 N.pl3     1 CMG        -0.3110
     13 C10        31.6720   46.9610   21.4760 C.3       1 CMG        -0.0121
     14 C11        31.8010   46.4090   22.9300 C.3       1 CMG        -0.0477
     15 C12        30.9550   47.1880   23.9640 C.3       1 CMG        -0.0527
     16 C13        31.0980   48.7030   23.8730 C.3       1 CMG        -0.0530
     17 C14        30.8100   49.2470   22.4270 C.3       1 CMG        -0.0527
     18 C15        31.6670   48.4870   21.3650 C.3       1 CMG        -0.0477
     19 H1         33.7095   46.2715   21.2621 H         1 CMG         0.0630
     20 H2         32.4895   45.2734   20.4005 H         1 CMG         0.0630
     21 H3         36.0710   49.3712   15.8513 H         1 CMG         0.1316
     22 H4         36.0889   47.0780   14.7402 H         1 CMG         0.2379
     23 H5         33.0252   42.6648   17.6143 H         1 CMG         0.1809
     24 H6         33.9408   42.5653   16.0864 H         1 CMG         0.1809
     25 H7         30.7076   46.6173   21.0739 H         1 CMG         0.0328
     26 H8         32.8574   46.4656   23.2313 H         1 CMG         0.0269
     27 H9         31.4744   45.3586   22.9337 H         1 CMG         0.0269
     28 H10        31.2642   46.8721   24.9712 H         1 CMG         0.0265
     29 H11        29.8968   46.9313   23.8079 H         1 CMG         0.0265
     30 H12        32.1247   48.9784   24.1558 H         1 CMG         0.0265
     31 H13        30.3877   49.1674   24.5729 H         1 CMG         0.0265
     32 H14        31.0569   50.3183   22.3893 H         1 CMG         0.0265
     33 H15        29.7436   49.1081   22.1956 H         1 CMG         0.0265
     34 H16        31.2810   48.7510   20.3694 H         1 CMG         0.0269
     35 H17        32.7062   48.8349   21.4594 H         1 CMG         0.0269
@<TRIPOS>BOND
     1    6    1 ar 
     2    1    2 ar 
     3    2   12 1  
     4    2    3 ar 
     5    3    4 ar 
     6    4   11 1  
     7    4    5 ar 
     8    5    9 1  
     9    5    6 ar 
    10    6    7 1  
    11    7    8 1  
    12    8   13 1  
    13   13   18 1  
    14   13   14 1  
    15   14   15 1  
    16   15   16 1  
    17   16   17 1  
    18   18   17 1  
    19    9   10 2  
    20   10   11 1  
    21    8   19 1  
    22    8   20 1  
    23   10   21 1  
    24   11   22 1  
    25   12   23 1  
    26   12   24 1  
    27   13   25 1  
    28   14   26 1  
    29   14   27 1  
    30   15   28 1  
    31   15   29 1  
    32   16   30 1  
    33   16   31 1  
    34   17   32 1  
    35   17   33 1  
    36   18   34 1  
    37   18   35 1  
@<TRIPOS>SUBSTRUCTURE
     1 CMG         1

