### 
### Created by X-TOOL on Mon Sep 10 21:12:49 2018
### 

@<TRIPOS>MOLECULE
1h1q_ligand
   45    48     1     0     0
SMALL
GAST_HUCK


@<TRIPOS>ATOM
      1 C2          7.8210   43.7020   49.3990 C.ar      1 2A6         0.1794
      2 C8         10.7390   46.1550   51.6470 C.2       1 2A6         0.1033
      3 C10         5.1160   45.2740   51.6170 C.3       1 2A6         0.0801
      4 C11         4.1070   45.7240   52.7030 C.3       1 2A6        -0.0121
      5 C12         2.7660   45.9860   51.9860 C.3       1 2A6        -0.0477
      6 C13         1.5620   46.0860   52.9390 C.3       1 2A6        -0.0527
      7 C14         1.4480   44.9690   53.9870 C.3       1 2A6        -0.0530
      8 C15         2.7870   44.7400   54.7250 C.3       1 2A6        -0.0527
      9 C16         4.0090   44.6090   53.7920 C.3       1 2A6        -0.0477
     10 C19         4.6670   40.9170   47.4030 C.ar      1 2A6        -0.0716
     11 C20         4.0590   40.6480   48.6330 C.ar      1 2A6        -0.0735
     12 C21         4.6450   41.0930   49.8150 C.ar      1 2A6        -0.0716
     13 C22         5.8520   41.7890   49.8080 C.ar      1 2A6        -0.0384
     14 N1          6.8700   44.4890   50.1810 N.ar      1 2A6        -0.2398
     15 C6          7.2370   45.3850   51.0370 C.ar      1 2A6         0.1758
     16 O6          6.3200   46.0740   51.7360 O.3       1 2A6        -0.2929
     17 C5          8.6590   45.6250   51.1990 C.ar      1 2A6         0.1044
     18 N7          9.5490   46.4520   51.9630 N.2       1 2A6        -0.3018
     19 N9         10.7730   45.2130   50.7360 N.pl3     1 2A6        -0.2402
     20 C4          9.5340   44.9120   50.4780 C.ar      1 2A6         0.1450
     21 N3          9.0610   43.9200   49.5710 N.ar      1 2A6        -0.2565
     22 N2          7.6000   42.7620   48.5320 N.pl3     1 2A6        -0.2493
     23 C17         6.4450   42.0610   48.5810 C.ar      1 2A6         0.0642
     24 C18         5.8550   41.6320   47.3960 C.ar      1 2A6        -0.0384
     25 H1         11.6227   46.6233   52.0779 H         1 2A6         0.1318
     26 H2          5.3627   44.2115   51.7594 H         1 2A6         0.0630
     27 H3          4.6741   45.4174   50.6199 H         1 2A6         0.0630
     28 H4          4.4522   46.6546   53.1772 H         1 2A6         0.0328
     29 H5          2.5828   45.1618   51.2809 H         1 2A6         0.0269
     30 H6          2.8485   46.9320   51.4308 H         1 2A6         0.0269
     31 H7          0.6464   46.0723   52.3295 H         1 2A6         0.0265
     32 H8          1.6326   47.0449   53.4734 H         1 2A6         0.0265
     33 H9          1.1542   44.0362   53.4835 H         1 2A6         0.0265
     34 H10         0.6785   45.2469   54.7223 H         1 2A6         0.0265
     35 H11         2.7023   43.8151   55.3144 H         1 2A6         0.0265
     36 H12         2.9585   45.5910   55.4006 H         1 2A6         0.0265
     37 H13         4.9191   44.6483   54.4085 H         1 2A6         0.0269
     38 H14         3.9520   43.6350   53.2840 H         1 2A6         0.0269
     39 H15         4.2201   40.5746   46.4766 H         1 2A6         0.0587
     40 H16         3.1292   40.0917   48.6664 H         1 2A6         0.0518
     41 H17         4.1522   40.8939   50.7598 H         1 2A6         0.0587
     42 H18         6.3156   42.1094   50.7340 H         1 2A6         0.0535
     43 H19        11.6124   44.7950   50.3099 H         1 2A6         0.2380
     44 H20         8.3023   42.5507   47.8088 H         1 2A6         0.2163
     45 H21         6.3328   41.8609   46.4503 H         1 2A6         0.0535
@<TRIPOS>BOND
     1   22    1 1  
     2    1   21 ar 
     3    1   14 ar 
     4   14   15 ar 
     5   15   17 ar 
     6   15   16 1  
     7   16    3 1  
     8    3    4 1  
     9    4    9 1  
    10    4    5 1  
    11    5    6 1  
    12    6    7 1  
    13    7    8 1  
    14    9    8 1  
    15   17   20 ar 
    16   17   18 1  
    17   18    2 2  
    18    2   19 1  
    19   20   19 1  
    20   21   20 ar 
    21   22   23 1  
    22   23   24 ar 
    23   23   13 ar 
    24   13   12 ar 
    25   12   11 ar 
    26   11   10 ar 
    27   10   24 ar 
    28    2   25 1  
    29    3   26 1  
    30    3   27 1  
    31    4   28 1  
    32    5   29 1  
    33    5   30 1  
    34    6   31 1  
    35    6   32 1  
    36    7   33 1  
    37    7   34 1  
    38    8   35 1  
    39    8   36 1  
    40    9   37 1  
    41    9   38 1  
    42   10   39 1  
    43   11   40 1  
    44   12   41 1  
    45   13   42 1  
    46   19   43 1  
    47   22   44 1  
    48   24   45 1  
@<TRIPOS>SUBSTRUCTURE
     1 2A6         1

