### 
### Created by X-TOOL on Mon Sep 10 21:12:49 2018
### 

@<TRIPOS>MOLECULE
1h1r_ligand
   45    48     1     0     0
SMALL
GAST_HUCK


@<TRIPOS>ATOM
      1 C2          8.2730   43.8540   49.7200 C.ar      1 6CP         0.1794
      2 N1          7.2960   44.5980   50.5040 N.ar      1 6CP        -0.2398
      3 C6          7.6880   45.5050   51.3510 C.ar      1 6CP         0.1758
      4 O6          6.8040   46.2010   52.0640 O.3       1 6CP        -0.2929
      5 C10         5.5450   45.5290   51.8610 C.3       1 6CP         0.0801
      6 C11         4.4980   45.9170   52.8940 C.3       1 6CP        -0.0121
      7 C12         4.6810   45.2640   54.2930 C.3       1 6CP        -0.0477
      8 C13         3.6190   45.5920   55.3380 C.3       1 6CP        -0.0527
      9 C14         2.1490   45.2400   54.7900 C.3       1 6CP        -0.0530
     10 C15         1.9870   45.9430   53.4450 C.3       1 6CP        -0.0527
     11 C16         3.0800   45.6370   52.3580 C.3       1 6CP        -0.0477
     12 C5          9.0930   45.7840   51.5470 C.ar      1 6CP         0.1044
     13 N7          9.8900   46.6560   52.3640 N.2       1 6CP        -0.3018
     14 C8         11.1310   46.4380   52.1100 C.2       1 6CP         0.1033
     15 N9         11.2310   45.5000   51.1730 N.pl3     1 6CP        -0.2402
     16 C4         10.0070   45.0950   50.8360 C.ar      1 6CP         0.1449
     17 N3          9.5500   44.0970   49.9120 N.ar      1 6CP        -0.2565
     18 N2          7.8690   42.9660   48.8680 N.pl3     1 6CP        -0.2493
     19 C17         6.7600   42.1990   48.8230 C.ar      1 6CP         0.0646
     20 C18         5.8240   42.0800   49.8460 C.ar      1 6CP        -0.0246
     21 C19         4.5950   41.4630   49.6930 C.ar      1 6CP         0.0309
     22 C20         4.2830   40.9410   48.4330 C.ar      1 6CP        -0.0595
     23 C21         5.1920   41.0440   47.3860 C.ar      1 6CP        -0.0710
     24 C22         6.4470   41.6530   47.5550 C.ar      1 6CP        -0.0383
     25 CL1         3.3610   41.3060   50.9190 Cl        1 6CP        -0.0738
     26 H1          5.7122   44.4434   51.9204 H         1 6CP         0.0630
     27 H2          5.1655   45.7875   50.8614 H         1 6CP         0.0630
     28 H3          4.5885   47.0036   53.0394 H         1 6CP         0.0328
     29 H4          5.6535   45.5903   54.6902 H         1 6CP         0.0269
     30 H5          4.6888   44.1728   54.1547 H         1 6CP         0.0269
     31 H6          3.6673   46.6647   55.5766 H         1 6CP         0.0265
     32 H7          3.8147   45.0049   56.2474 H         1 6CP         0.0265
     33 H8          1.3872   45.5999   55.4972 H         1 6CP         0.0265
     34 H9          2.0454   44.1525   54.6614 H         1 6CP         0.0265
     35 H10         1.9953   47.0271   53.6313 H         1 6CP         0.0265
     36 H11         1.0115   45.6497   53.0299 H         1 6CP         0.0265
     37 H12         3.0095   44.5785   52.0673 H         1 6CP         0.0269
     38 H13         2.8978   46.2718   51.4783 H         1 6CP         0.0269
     39 H14        11.9695   46.9427   52.5876 H         1 6CP         0.1318
     40 H15        12.1110   45.1444   50.7729 H         1 6CP         0.2380
     41 H16         8.5139   42.8180   48.0786 H         1 6CP         0.2163
     42 H17         6.0716   42.4938   50.8169 H         1 6CP         0.0540
     43 H18         3.3280   40.4539   48.2723 H         1 6CP         0.0524
     44 H19         4.9257   40.6442   46.4143 H         1 6CP         0.0587
     45 H20         7.1562   41.7033   46.7367 H         1 6CP         0.0537
@<TRIPOS>BOND
     1    1    2 ar 
     2    1   17 ar 
     3    1   18 1  
     4    2    3 ar 
     5    3    4 1  
     6    3   12 ar 
     7    4    5 1  
     8    5    6 1  
     9    6    7 1  
    10    6   11 1  
    11    7    8 1  
    12    8    9 1  
    13    9   10 1  
    14   10   11 1  
    15   12   13 1  
    16   12   16 ar 
    17   13   14 2  
    18   14   15 1  
    19   15   16 1  
    20   16   17 ar 
    21   18   19 1  
    22   19   20 ar 
    23   19   24 ar 
    24   20   21 ar 
    25   21   22 ar 
    26   21   25 1  
    27   22   23 ar 
    28   23   24 ar 
    29    5   26 1  
    30    5   27 1  
    31    6   28 1  
    32    7   29 1  
    33    7   30 1  
    34    8   31 1  
    35    8   32 1  
    36    9   33 1  
    37    9   34 1  
    38   10   35 1  
    39   10   36 1  
    40   11   37 1  
    41   11   38 1  
    42   14   39 1  
    43   15   40 1  
    44   18   41 1  
    45   20   42 1  
    46   22   43 1  
    47   23   44 1  
    48   24   45 1  
@<TRIPOS>SUBSTRUCTURE
     1 6CP         1

