### 
### Created by X-TOOL on Mon Sep 10 21:12:49 2018
### 

@<TRIPOS>MOLECULE
1h1s_ligand
   50    53     1     0     0
SMALL
GAST_HUCK


@<TRIPOS>ATOM
      1 C2          7.6500   43.8340   49.7640 C.ar      1 4SP         0.1794
      2 C8         10.4750   46.4910   51.9330 C.2       1 4SP         0.1033
      3 C10         4.8960   45.7490   51.7150 C.3       1 4SP         0.0801
      4 C11         3.9390   46.1020   52.8920 C.3       1 4SP        -0.0121
      5 C12         4.2880   45.4670   54.2670 C.3       1 4SP        -0.0477
      6 C13         3.3970   45.8570   55.4410 C.3       1 4SP        -0.0527
      7 C14         1.8520   45.5580   55.1100 C.3       1 4SP        -0.0530
      8 C15         1.5320   46.2430   53.7850 C.3       1 4SP        -0.0527
      9 C16         2.4500   45.8720   52.5650 C.3       1 4SP        -0.0477
     10 C19         4.4350   40.8130   47.8880 C.ar      1 4SP        -0.0450
     11 C20         3.6020   40.7530   48.9770 C.ar      1 4SP         0.0961
     12 C21         4.0230   41.4320   50.1800 C.ar      1 4SP        -0.0450
     13 C22         5.2240   42.1010   50.1750 C.ar      1 4SP        -0.0366
     14 N26         1.0630   40.4980   49.8460 N.am      1 4SP        -0.2622
     15 N1          6.6580   44.5200   50.5610 N.ar      1 4SP        -0.2398
     16 C6          7.0800   45.4670   51.3690 C.ar      1 4SP         0.1758
     17 O6          6.2540   46.2290   52.0730 O.3       1 4SP        -0.2929
     18 C5          8.4650   45.7670   51.5400 C.ar      1 4SP         0.1044
     19 N7          9.2320   46.7290   52.2560 N.2       1 4SP        -0.3018
     20 N9         10.5880   45.5050   51.0470 N.pl3     1 4SP        -0.2402
     21 C4          9.3620   45.1110   50.8140 C.ar      1 4SP         0.1450
     22 N3          8.8790   44.0990   49.9700 N.ar      1 4SP        -0.2565
     23 N2          7.2860   42.8560   48.9780 N.pl3     1 4SP        -0.2493
     24 C17         6.0650   42.2250   49.0670 C.ar      1 4SP         0.0643
     25 C18         5.6110   41.5340   47.9220 C.ar      1 4SP        -0.0366
     26 S23         2.1470   39.7960   48.9300 S.o2      1 4SP         0.0607
     27 O24         2.4550   38.5120   49.5420 O.2       1 4SP        -0.1520
     28 O25         1.5530   39.7400   47.5990 O.2       1 4SP        -0.1520
     29 H1         11.3230   47.0378   52.3426 H         1 4SP         0.1318
     30 H2          4.9129   44.6600   51.5606 H         1 4SP         0.0630
     31 H3          4.5548   46.2447   50.7942 H         1 4SP         0.0630
     32 H4          4.0538   47.1870   53.0322 H         1 4SP         0.0328
     33 H5          5.3185   45.7585   54.5181 H         1 4SP         0.0269
     34 H6          4.2332   44.3742   54.1542 H         1 4SP         0.0269
     35 H7          3.5205   46.9306   55.6463 H         1 4SP         0.0265
     36 H8          3.6944   45.2776   56.3274 H         1 4SP         0.0265
     37 H9          1.2110   45.9622   55.9073 H         1 4SP         0.0265
     38 H10         1.6886   44.4737   55.0224 H         1 4SP         0.0265
     39 H11         1.6086   47.3289   53.9429 H         1 4SP         0.0265
     40 H12         0.4974   45.9837   53.5159 H         1 4SP         0.0265
     41 H13         2.2985   44.8122   52.3122 H         1 4SP         0.0269
     42 H14         2.1716   46.4977   51.7042 H         1 4SP         0.0269
     43 H15         4.1634   40.2829   46.9823 H         1 4SP         0.0606
     44 H16         3.4040   41.4145   51.0697 H         1 4SP         0.0606
     45 H17         5.5420   42.5672   51.1005 H         1 4SP         0.0536
     46 H18         0.1544   40.0925   49.9458 H         1 4SP         0.1633
     47 H19         1.2870   41.3469   50.3248 H         1 4SP         0.1633
     48 H20        11.4543   45.1319   50.6333 H         1 4SP         0.2380
     49 H21         7.9468   42.5403   48.2538 H         1 4SP         0.2163
     50 H22         6.2173   41.5720   47.0242 H         1 4SP         0.0536
@<TRIPOS>BOND
     1   23    1 1  
     2    1   22 ar 
     3    1   15 ar 
     4   15   16 ar 
     5   16   18 ar 
     6   16   17 1  
     7   17    3 1  
     8    3    4 1  
     9    4    9 1  
    10    4    5 1  
    11    5    6 1  
    12    6    7 1  
    13    7    8 1  
    14    9    8 1  
    15   18   21 ar 
    16   18   19 1  
    17   19    2 2  
    18    2   20 1  
    19   21   20 1  
    20   22   21 ar 
    21   23   24 1  
    22   24   25 ar 
    23   24   13 ar 
    24   13   12 ar 
    25   12   11 ar 
    26   11   26 1  
    27   11   10 ar 
    28   10   25 ar 
    29   26   14 am 
    30   26   28 2  
    31   26   27 2  
    32    2   29 1  
    33    3   30 1  
    34    3   31 1  
    35    4   32 1  
    36    5   33 1  
    37    5   34 1  
    38    6   35 1  
    39    6   36 1  
    40    7   37 1  
    41    7   38 1  
    42    8   39 1  
    43    8   40 1  
    44    9   41 1  
    45    9   42 1  
    46   10   43 1  
    47   12   44 1  
    48   13   45 1  
    49   14   46 1  
    50   14   47 1  
    51   20   48 1  
    52   23   49 1  
    53   25   50 1  
@<TRIPOS>SUBSTRUCTURE
     1 4SP         1

