### 
### Created by X-TOOL on Mon Sep 10 21:12:49 2018
### 

@<TRIPOS>MOLECULE
1h2k_ligand
   13    12     1     0     0
SMALL
GAST_HUCK


@<TRIPOS>ATOM
      1 C1         22.0910   25.1730   27.5940 C.2       1 OGA         0.1433
      2 C2         21.0660   25.8290   28.2020 C.2       1 OGA         0.2452
      3 C4         18.7560   25.7140   29.0040 C.3       1 OGA         0.0841
      4 C5         17.4150   25.2410   28.4950 C.2       1 OGA         0.0572
      5 O1         21.9090   24.0610   27.0900 O.co2     1 OGA        -0.5457
      6 O2         23.2190   25.6580   27.5310 O.co2     1 OGA        -0.5457
      7 O2'        21.1920   26.9590   28.7110 O.2       1 OGA        -0.3655
      8 O3         16.4160   25.6620   29.0550 O.co2     1 OGA        -0.5669
      9 N1         19.8860   25.2030   28.2280 N.am      1 OGA        -0.2659
     10 O4         17.3320   24.4750   27.5370 O.co2     1 OGA        -0.5669
     11 H1         18.8702   25.3815   30.0463 H         1 OGA         0.0691
     12 H2         18.7755   26.8131   28.9655 H         1 OGA         0.0691
     13 H3         19.7719   24.3605   27.7016 H         1 OGA         0.1886
@<TRIPOS>BOND
     1    2    1 1  
     2    1    5 ar 
     3    1    6 ar 
     4    2    7 2  
     5    9    2 am 
     6    3    4 1  
     7    3    9 1  
     8    4    8 ar 
     9    4   10 ar 
    10    3   11 1  
    11    3   12 1  
    12    9   13 1  
@<TRIPOS>SUBSTRUCTURE
     1 OGA         1

