### 
### Created by X-TOOL on Mon Sep 10 21:12:50 2018
### 

@<TRIPOS>MOLECULE
1h35_ligand
   50    52     1     0     0
SMALL
GAST_HUCK


@<TRIPOS>ATOM
      1 C1G        67.4490   71.1630   70.9360 C.ar      1 R01         0.0364
      2 C1         66.5780   70.0460   70.3620 C.2       1 R01         0.1611
      3 O2         66.4190   69.0270   71.0200 O.2       1 R01        -0.3670
      4 C4A        65.8960   70.1440   69.0030 C.ar      1 R01         0.0330
      5 C3A        64.5250   69.7740   68.8620 C.ar      1 R01        -0.0443
      6 C2A        63.8770   69.8650   67.5980 C.ar      1 R01        -0.0504
      7 C1A        64.5890   70.3250   66.4560 C.ar      1 R01        -0.0180
      8 C2B        63.5420   71.7120   64.6510 C.ar      1 R01        -0.0587
      9 C3B        62.8590   71.8560   63.4100 C.ar      1 R01        -0.0531
     10 C4B        62.5050   70.7140   62.6290 C.ar      1 R01         0.0031
     11 C1C        61.7350   70.8680   61.2710 C.3       1 R01         0.0041
     12 C5B        62.8550   69.4160   63.1280 C.ar      1 R01        -0.0531
     13 C6B        63.5430   69.2720   64.3790 C.ar      1 R01        -0.0587
     14 N1D        62.5430   71.1380   60.0200 N.4       1 R01         0.2583
     15 C1F        63.2870   72.4380   60.0480 C.3       1 R01        -0.0400
     16 C1E        63.4810   70.0030   59.7300 C.3       1 R01        -0.0028
     17 C2E        62.9880   69.1310   58.5930 C.2       1 R01        -0.0447
     18 C3E        63.6470   68.0450   58.1640 C.2       1 R01        -0.1125
     19 C6A        65.9640   70.6960   66.5900 C.ar      1 R01        -0.0504
     20 C5A        66.6080   70.6030   67.8560 C.ar      1 R01        -0.0443
     21 C2G        68.7040   70.8500   71.5490 C.ar      1 R01        -0.0409
     22 C3G        69.5220   71.8900   72.0850 C.ar      1 R01        -0.0467
     23 C4G        69.0860   73.2470   72.0090 C.ar      1 R01         0.0174
     24 C1B        63.8870   70.4280   65.1430 C.ar      1 R01        -0.0214
     25 BR27       70.1350   74.6120   72.6950 Br        1 R01        -0.0459
     26 C5G        67.8400   73.5580   71.4020 C.ar      1 R01        -0.0467
     27 C6G        67.0280   72.5250   70.8710 C.ar      1 R01        -0.0409
     28 H1         63.9723   69.4206   69.7250 H         1 R01         0.0666
     29 H2         62.8347   69.5820   67.5052 H         1 R01         0.0625
     30 H3         63.8010   72.5938   65.2259 H         1 R01         0.0615
     31 H4         62.6039   72.8471   63.0527 H         1 R01         0.0564
     32 H5         61.0277   71.7021   61.3893 H         1 R01         0.0985
     33 H6         61.1770   69.9349   61.1043 H         1 R01         0.0985
     34 H7         62.5969   68.5336   62.5537 H         1 R01         0.0564
     35 H8         63.8018   68.2847   64.7443 H         1 R01         0.0615
     36 H9         61.8877   71.1917   59.2559 H         1 R01         0.2063
     37 H10        63.8467   72.5604   59.1090 H         1 R01         0.0778
     38 H11        63.9880   72.4411   60.8957 H         1 R01         0.0778
     39 H12        62.5727   73.2670   60.1598 H         1 R01         0.0778
     40 H13        63.5792   69.3844   60.6342 H         1 R01         0.0997
     41 H14        64.4641   70.4158   59.4595 H         1 R01         0.0997
     42 H15        62.0542   69.3991   58.1010 H         1 R01         0.0725
     43 H16        63.2460   67.4542   57.3417 H         1 R01         0.0292
     44 H17        64.5833   67.7537   58.6378 H         1 R01         0.0292
     45 H18        66.5162   71.0484   65.7263 H         1 R01         0.0625
     46 H19        67.6508   70.8841   67.9491 H         1 R01         0.0666
     47 H20        69.0346   69.8192   71.6065 H         1 R01         0.0675
     48 H21        70.4719   71.6497   72.5486 H         1 R01         0.0655
     49 H22        67.5092   74.5887   71.3448 H         1 R01         0.0655
     50 H23        66.0780   72.7718   70.4110 H         1 R01         0.0675
@<TRIPOS>BOND
     1    2    1 1  
     2    1   21 ar 
     3    1   27 ar 
     4    2    3 2  
     5    4    2 1  
     6    5    4 ar 
     7    4   20 ar 
     8    6    5 ar 
     9    7    6 ar 
    10    7   19 ar 
    11   24    7 1  
    12    8    9 ar 
    13    8   24 ar 
    14    9   10 ar 
    15   10   11 1  
    16   10   12 ar 
    17   11   14 1  
    18   12   13 ar 
    19   13   24 ar 
    20   14   15 1  
    21   14   16 1  
    22   16   17 1  
    23   17   18 2  
    24   19   20 ar 
    25   21   22 ar 
    26   22   23 ar 
    27   23   25 1  
    28   23   26 ar 
    29   26   27 ar 
    30    5   28 1  
    31    6   29 1  
    32    8   30 1  
    33    9   31 1  
    34   11   32 1  
    35   11   33 1  
    36   12   34 1  
    37   13   35 1  
    38   14   36 1  
    39   15   37 1  
    40   15   38 1  
    41   15   39 1  
    42   16   40 1  
    43   16   41 1  
    44   17   42 1  
    45   18   43 1  
    46   18   44 1  
    47   19   45 1  
    48   20   46 1  
    49   21   47 1  
    50   22   48 1  
    51   26   49 1  
    52   27   50 1  
@<TRIPOS>SUBSTRUCTURE
     1 R01         1

