### 
### Created by X-TOOL on Mon Sep 10 21:12:50 2018
### 

@<TRIPOS>MOLECULE
1h36_ligand
   48    50     1     0     0
SMALL
GAST_HUCK


@<TRIPOS>ATOM
      1 C1A        67.2630   70.5720   71.4220 C.ar      1 R88         0.0348
      2 C1         66.1310   69.8080   70.7610 C.2       1 R88         0.1542
      3 O2         65.4110   69.1320   71.4890 O.2       1 R88        -0.3716
      4 C1B        65.8410   69.8230   69.2550 C.ar      1 R88         0.0233
      5 C6B        64.6280   69.2380   68.7750 C.ar      1 R88        -0.0517
      6 C5B        64.3280   69.2280   67.3910 C.ar      1 R88        -0.0264
      7 C4B        65.2400   69.8080   66.4560 C.ar      1 R88         0.0994
      8 C2C        63.7110   70.3820   64.6920 C.3       1 R88         0.0893
      9 C3C        63.7110   70.4470   63.1970 C.2       1 R88        -0.0635
     10 C4C        63.9390   71.5740   62.5280 C.2       1 R88        -0.0518
     11 C5C        63.9510   71.6640   61.0140 C.3       1 R88        -0.0148
     12 N1D        62.6080   71.9170   60.3700 N.4       1 R88         0.2447
     13 C1F        61.8180   72.9720   61.0740 C.3       1 R88        -0.0417
     14 C1E        61.8950   70.6160   60.1200 C.3       1 R88        -0.0196
     15 C2E        62.5720   69.3970   59.4290 C.3       1 R88        -0.0046
     16 C3B        66.4490   70.3940   66.9220 C.ar      1 R88        -0.0264
     17 C2B        66.7490   70.4020   68.3110 C.ar      1 R88        -0.0517
     18 C6A        67.3440   71.9970   71.3580 C.ar      1 R88        -0.0410
     19 C5A        68.4120   72.6780   71.9980 C.ar      1 R88        -0.0467
     20 C4A        69.4010   71.9400   72.7060 C.ar      1 R88         0.0174
     21 O1C        64.9670   69.8030   65.0830 O.3       1 R88        -0.3054
     22 C3E        61.5770   70.2770   58.6450 C.3       1 R88        -0.0046
     23 BR23       70.7830   72.8210   73.5480 Br        1 R88        -0.0459
     24 C3A        69.3250   70.5240   72.7720 C.ar      1 R88        -0.0467
     25 C2A        68.2590   69.8430   72.1320 C.ar      1 R88        -0.0410
     26 H1         63.9304   68.7973   69.4780 H         1 R88         0.0643
     27 H2         63.4054   68.7798   67.0404 H         1 R88         0.0558
     28 H3         62.8790   69.7543   65.0437 H         1 R88         0.0742
     29 H4         63.6121   71.3926   65.1149 H         1 R88         0.0742
     30 H5         63.5166   69.5352   62.6342 H         1 R88         0.0478
     31 H6         64.1274   72.4820   63.0989 H         1 R88         0.0503
     32 H7         64.3427   70.7144   60.6205 H         1 R88         0.0939
     33 H8         64.6247   72.4852   60.7280 H         1 R88         0.0939
     34 H9         62.8013   72.2990   59.4575 H         1 R88         0.2045
     35 H10        60.8545   73.1116   60.5619 H         1 R88         0.0778
     36 H11        62.3790   73.9181   61.0639 H         1 R88         0.0778
     37 H12        61.6388   72.6630   62.1144 H         1 R88         0.0778
     38 H13        61.1586   70.4391   60.9178 H         1 R88         0.0851
     39 H14        62.2913   68.3739   59.7195 H         1 R88         0.0322
     40 H15        63.6443   69.4279   59.1855 H         1 R88         0.0322
     41 H16        67.1432   70.8355   66.2162 H         1 R88         0.0558
     42 H17        67.6727   70.8501   68.6589 H         1 R88         0.0643
     43 H18        66.5889   72.5586   70.8200 H         1 R88         0.0675
     44 H19        68.4741   73.7590   71.9475 H         1 R88         0.0655
     45 H20        61.9408   70.9331   57.8406 H         1 R88         0.0322
     46 H21        60.5878   69.8791   58.3745 H         1 R88         0.0322
     47 H22        70.0809   69.9643   73.3109 H         1 R88         0.0655
     48 H23        68.2018   68.7617   72.1834 H         1 R88         0.0675
@<TRIPOS>BOND
     1    2    1 1  
     2    1   18 ar 
     3    1   25 ar 
     4    2    3 2  
     5    4    2 1  
     6    5    4 ar 
     7    4   17 ar 
     8    6    5 ar 
     9    7    6 ar 
    10    7   16 ar 
    11   21    7 1  
    12    8    9 1  
    13    8   21 1  
    14    9   10 2  
    15   10   11 1  
    16   11   12 1  
    17   12   13 1  
    18   12   14 1  
    19   14   15 1  
    20   14   22 1  
    21   15   22 1  
    22   16   17 ar 
    23   18   19 ar 
    24   19   20 ar 
    25   20   23 1  
    26   20   24 ar 
    27   24   25 ar 
    28    5   26 1  
    29    6   27 1  
    30    8   28 1  
    31    8   29 1  
    32    9   30 1  
    33   10   31 1  
    34   11   32 1  
    35   11   33 1  
    36   12   34 1  
    37   13   35 1  
    38   13   36 1  
    39   13   37 1  
    40   14   38 1  
    41   15   39 1  
    42   15   40 1  
    43   16   41 1  
    44   17   42 1  
    45   18   43 1  
    46   19   44 1  
    47   22   45 1  
    48   22   46 1  
    49   24   47 1  
    50   25   48 1  
@<TRIPOS>SUBSTRUCTURE
     1 R88         1

