### 
### Created by X-TOOL on Mon Sep 10 21:12:50 2018
### 

@<TRIPOS>MOLECULE
1h37_ligand
   55    58     1     0     0
SMALL
GAST_HUCK


@<TRIPOS>ATOM
      1 C1G        68.3100   72.0150   71.8920 C.ar      1 R02         0.0348
      2 C1         67.5870   70.7240   71.5000 C.2       1 R02         0.1542
      3 O2         67.7490   69.7390   72.2130 O.2       1 R02        -0.3716
      4 C1A        66.6880   70.5810   70.2600 C.ar      1 R02         0.0233
      5 C2A        66.8070   71.4690   69.1550 C.ar      1 R02        -0.0517
      6 C3A        65.9860   71.3330   68.0120 C.ar      1 R02        -0.0266
      7 C4A        65.0190   70.2970   67.9370 C.ar      1 R02         0.0970
      8 O1B        64.1910   70.1580   66.7900 O.3       1 R02        -0.3140
      9 C2B        64.8250   70.2910   65.4800 C.3       1 R02         0.0750
     10 C3B        63.7840   69.8340   64.4140 C.3       1 R02        -0.0049
     11 C5B        62.4360   70.5930   64.4980 C.3       1 R02        -0.0393
     12 C2F        62.5220   73.6180   60.4650 C.3       1 R02        -0.0045
     13 C1F        63.3520   72.4470   61.0210 C.3       1 R02        -0.0189
     14 N1D        62.8540   71.0640   60.7390 N.4       1 R02         0.2507
     15 C1C        62.9110   70.1750   61.9550 C.3       1 R02        -0.0268
     16 C1E        63.6140   70.5060   59.5980 C.3       1 R02        -0.0038
     17 C2E        62.9420   69.3440   58.8940 C.2       1 R02        -0.0447
     18 C3E        63.6450   68.3260   58.3880 C.2       1 R02        -0.1125
     19 C5A        64.8850   69.3960   69.0420 C.ar      1 R02        -0.0266
     20 C6A        65.7150   69.5370   70.1960 C.ar      1 R02        -0.0517
     21 C6G        67.6610   73.2840   71.7950 C.ar      1 R02        -0.0410
     22 C5G        68.3380   74.4690   72.1530 C.ar      1 R02        -0.0467
     23 C4G        69.6770   74.4130   72.6190 C.ar      1 R02         0.0174
     24 BR25       70.5440   75.9910   73.0740 Br        1 R02        -0.0459
     25 C3G        70.3410   73.1500   72.7280 C.ar      1 R02        -0.0467
     26 C4B        63.3650   70.8300   63.2970 C.3       1 R02         0.0049
     27 C3F        63.9100   73.3290   59.8700 C.3       1 R02        -0.0045
     28 C2G        69.6590   71.9580   72.3660 C.ar      1 R02        -0.0410
     29 H1         67.5415   72.2655   69.1900 H         1 R02         0.0643
     30 H2         66.0961   72.0261   67.1858 H         1 R02         0.0558
     31 H3         65.7207   69.6545   65.4287 H         1 R02         0.0619
     32 H4         65.1092   71.3389   65.3038 H         1 R02         0.0619
     33 H5         63.8493   68.7538   64.2171 H         1 R02         0.0332
     34 H6         62.2978   71.3845   65.2493 H         1 R02         0.0273
     35 H7         61.4902   70.0484   64.3609 H         1 R02         0.0273
     36 H8         62.3648   74.5180   61.0776 H         1 R02         0.0322
     37 H9         61.6183   73.4161   59.8713 H         1 R02         0.0322
     38 H10        63.8040   72.4929   62.0228 H         1 R02         0.0851
     39 H11        61.8867   71.1325   60.4639 H         1 R02         0.2053
     40 H12        63.6107   69.3557   61.7334 H         1 R02         0.0817
     41 H13        61.9029   69.7639   62.1119 H         1 R02         0.0817
     42 H14        64.5893   70.1615   59.9722 H         1 R02         0.0997
     43 H15        63.7664   71.3097   58.8626 H         1 R02         0.0997
     44 H16        61.8573   69.3384   58.7979 H         1 R02         0.0725
     45 H17        63.1324   67.5057   57.8877 H         1 R02         0.0292
     46 H18        64.7304   68.3169   58.4760 H         1 R02         0.0292
     47 H19        64.1486   68.6015   69.0024 H         1 R02         0.0558
     48 H20        65.6061   68.8490   71.0266 H         1 R02         0.0643
     49 H21        66.6373   73.3370   71.4425 H         1 R02         0.0675
     50 H22        67.8336   75.4251   72.0718 H         1 R02         0.0655
     51 H23        71.3630   73.1032   73.0863 H         1 R02         0.0655
     52 H24        63.8846   71.7865   63.1382 H         1 R02         0.0356
     53 H25        64.7453   74.0189   60.0602 H         1 R02         0.0322
     54 H26        63.9988   72.9170   58.8539 H         1 R02         0.0322
     55 H27        70.1622   71.0015   72.4491 H         1 R02         0.0675
@<TRIPOS>BOND
     1    2    1 1  
     2    1   21 ar 
     3    1   28 ar 
     4    2    3 2  
     5    4    2 1  
     6    5    4 ar 
     7    4   20 ar 
     8    6    5 ar 
     9    7    6 ar 
    10    8    7 1  
    11    7   19 ar 
    12    9    8 1  
    13   10    9 1  
    14   11   10 1  
    15   26   10 1  
    16   26   11 1  
    17   13   12 1  
    18   27   12 1  
    19   14   13 1  
    20   13   27 1  
    21   15   14 1  
    22   14   16 1  
    23   15   26 1  
    24   16   17 1  
    25   17   18 2  
    26   19   20 ar 
    27   21   22 ar 
    28   22   23 ar 
    29   23   24 1  
    30   23   25 ar 
    31   25   28 ar 
    32    5   29 1  
    33    6   30 1  
    34    9   31 1  
    35    9   32 1  
    36   10   33 1  
    37   11   34 1  
    38   11   35 1  
    39   12   36 1  
    40   12   37 1  
    41   13   38 1  
    42   14   39 1  
    43   15   40 1  
    44   15   41 1  
    45   16   42 1  
    46   16   43 1  
    47   17   44 1  
    48   18   45 1  
    49   18   46 1  
    50   19   47 1  
    51   20   48 1  
    52   21   49 1  
    53   22   50 1  
    54   25   51 1  
    55   26   52 1  
    56   27   53 1  
    57   27   54 1  
    58   28   55 1  
@<TRIPOS>SUBSTRUCTURE
     1 R02         1

