### 
### Created by X-TOOL on Mon Sep 10 21:12:50 2018
### 

@<TRIPOS>MOLECULE
1h39_ligand
   60    62     1     0     0
SMALL
GAST_HUCK


@<TRIPOS>ATOM
      1 C3A        62.8900   69.3740   58.5870 C.2       1 R03        -0.1125
      2 C2A        61.9930   69.4620   59.5790 C.2       1 R03        -0.0447
      3 C1A        61.5190   70.7790   60.1670 C.3       1 R03        -0.0043
      4 N1         62.5280   71.4070   61.0700 N.4       1 R03         0.2462
      5 C1B        62.3000   71.0920   62.5110 C.3       1 R03        -0.0305
      6 C2B        63.1560   69.9230   63.0730 C.3       1 R03        -0.0125
      7 C3B        63.9750   70.3640   64.3160 C.3       1 R03        -0.0482
      8 C4B        63.2170   70.0490   65.6410 C.3       1 R03        -0.0504
      9 C5B        63.9320   68.9460   66.4700 C.3       1 R03        -0.0251
     10 C6B        65.1380   69.5080   67.2640 C.3       1 R03         0.0702
     11 O          64.6590   70.0380   68.5190 O.3       1 R03        -0.3206
     12 C6C        65.6330   70.6750   69.3060 C.ar      1 R03         0.0839
     13 C7C        66.4590   69.9060   70.1890 C.ar      1 R03        -0.0077
     14 C7P        67.4360   70.5990   70.9720 C.ar      1 R03         0.0835
     15 N1C        68.3120   70.1010   71.8580 N.pl3     1 R03        -0.2058
     16 N2C        68.9630   71.0580   72.2970 N.2       1 R03        -0.1998
     17 C3C        68.6080   72.2360   71.7760 C.2       1 R03         0.0605
     18 C3P        67.5760   71.9970   70.8720 C.ar      1 R03         0.0098
     19 C4C        66.7640   72.7810   70.0020 C.ar      1 R03        -0.0678
     20 C5C        65.7880   72.0950   69.2190 C.ar      1 R03        -0.0401
     21 C1D        69.2490   73.5680   72.1390 C.ar      1 R03        -0.0080
     22 C6D        70.5660   73.8800   71.6870 C.ar      1 R03        -0.0524
     23 C5D        71.1800   75.1220   72.0260 C.ar      1 R03        -0.0531
     24 C4D        70.4800   76.0690   72.8270 C.ar      1 R03         0.0116
     25 C3D        69.1580   75.7640   73.2820 C.ar      1 R03        -0.0531
     26 C2D        68.5450   74.5180   72.9390 C.ar      1 R03        -0.0524
     27 BR27       71.2900   77.6870   73.2790 Br        1 R03        -0.0508
     28 C1E        68.4780   68.6970   72.2410 C.3       1 R03         0.0553
     29 C1F        62.5310   72.8870   60.8850 C.3       1 R03        -0.0415
     30 H1         63.1892   68.3977   58.2085 H         1 R03         0.0292
     31 H2         63.3196   70.2788   58.1595 H         1 R03         0.0292
     32 H3         61.5820   68.5389   59.9852 H         1 R03         0.0725
     33 H4         60.5990   70.5963   60.7416 H         1 R03         0.0997
     34 H5         61.3043   71.4748   59.3425 H         1 R03         0.0997
     35 H6         63.4351   71.0500   60.8136 H         1 R03         0.2047
     36 H7         61.2394   70.8300   62.6390 H         1 R03         0.0814
     37 H8         62.5283   71.9942   63.0974 H         1 R03         0.0814
     38 H9         63.8497   69.5799   62.2913 H         1 R03         0.0317
     39 H10        62.4887   69.0968   63.3594 H         1 R03         0.0317
     40 H11        64.1578   71.4471   64.2577 H         1 R03         0.0267
     41 H12        64.9364   69.8295   64.3186 H         1 R03         0.0267
     42 H13        62.2005   69.7071   65.3965 H         1 R03         0.0266
     43 H14        63.1599   70.9667   66.2448 H         1 R03         0.0266
     44 H15        64.2910   68.1635   65.7853 H         1 R03         0.0291
     45 H16        63.2118   68.5111   67.1786 H         1 R03         0.0291
     46 H17        65.6221   70.3082   66.6849 H         1 R03         0.0614
     47 H18        65.8632   68.7032   67.4547 H         1 R03         0.0614
     48 H19        66.3470   68.8303   70.2618 H         1 R03         0.0460
     49 H20        66.8831   73.8565   69.9376 H         1 R03         0.0579
     50 H21        65.1526   72.6596   68.5463 H         1 R03         0.0488
     51 H22        71.1066   73.1642   71.0784 H         1 R03         0.0620
     52 H23        72.1805   75.3454   71.6736 H         1 R03         0.0640
     53 H24        68.6182   76.4811   73.8899 H         1 R03         0.0640
     54 H25        67.5432   74.2944   73.2874 H         1 R03         0.0620
     55 H26        69.2791   68.6136   72.9902 H         1 R03         0.0580
     56 H27        68.7428   68.1036   71.3534 H         1 R03         0.0580
     57 H28        67.5368   68.3194   72.6671 H         1 R03         0.0580
     58 H29        62.6988   73.1235   59.8239 H         1 R03         0.0778
     59 H30        63.3346   73.3307   61.4911 H         1 R03         0.0778
     60 H31        61.5618   73.2983   61.2035 H         1 R03         0.0778
@<TRIPOS>BOND
     1    1    2 2  
     2    2    3 1  
     3    3    4 1  
     4    4    5 1  
     5    4   29 1  
     6    5    6 1  
     7    6    7 1  
     8    7    8 1  
     9    8    9 1  
    10    9   10 1  
    11   10   11 1  
    12   11   12 1  
    13   12   13 ar 
    14   12   20 ar 
    15   13   14 ar 
    16   14   15 1  
    17   14   18 ar 
    18   15   16 1  
    19   15   28 1  
    20   16   17 2  
    21   17   18 1  
    22   17   21 1  
    23   18   19 ar 
    24   19   20 ar 
    25   21   22 ar 
    26   21   26 ar 
    27   22   23 ar 
    28   23   24 ar 
    29   24   25 ar 
    30   24   27 1  
    31   25   26 ar 
    32    1   30 1  
    33    1   31 1  
    34    2   32 1  
    35    3   33 1  
    36    3   34 1  
    37    4   35 1  
    38    5   36 1  
    39    5   37 1  
    40    6   38 1  
    41    6   39 1  
    42    7   40 1  
    43    7   41 1  
    44    8   42 1  
    45    8   43 1  
    46    9   44 1  
    47    9   45 1  
    48   10   46 1  
    49   10   47 1  
    50   13   48 1  
    51   19   49 1  
    52   20   50 1  
    53   22   51 1  
    54   23   52 1  
    55   25   53 1  
    56   26   54 1  
    57   28   55 1  
    58   28   56 1  
    59   28   57 1  
    60   29   58 1  
    61   29   59 1  
    62   29   60 1  
@<TRIPOS>SUBSTRUCTURE
     1 R03         1

