### 
### Created by X-TOOL on Mon Sep 10 21:12:50 2018
### 

@<TRIPOS>MOLECULE
1h3a_ligand
   52    54     1     0     0
SMALL
GAST_HUCK


@<TRIPOS>ATOM
      1 C3A        63.1990   69.3230   57.6810 C.2       1 R04        -0.1125
      2 C2A        62.3130   69.2220   58.6800 C.2       1 R04        -0.0447
      3 C1A        61.7620   70.4210   59.4260 C.3       1 R04        -0.0031
      4 N1         62.8440   71.3720   59.8170 N.4       1 R04         0.2555
      5 C1B        63.6060   70.9250   61.0380 C.3       1 R04        -0.0135
      6 C2B        62.8450   70.9730   62.3540 C.2       1 R04        -0.0518
      7 C3B        62.7170   69.9070   63.1650 C.2       1 R04        -0.0639
      8 C4B        61.9670   69.9620   64.4810 C.3       1 R04         0.0872
      9 O          62.5860   69.0430   65.4160 O.3       1 R04        -0.3107
     10 C6C        63.5370   69.5900   66.3400 C.ar      1 R04         0.1208
     11 C7C        63.9490   70.9650   66.2660 C.ar      1 R04        -0.0075
     12 C7P        64.8930   71.4390   67.2010 C.ar      1 R04         0.0804
     13 N1C        65.4050   72.6690   67.3070 N.pl3     1 R04        -0.2075
     14 N2C        66.1870   72.6720   68.2410 N.2       1 R04        -0.2009
     15 C3C        66.2800   71.4860   68.8450 C.2       1 R04         0.0588
     16 C3P        65.4230   70.5940   68.1900 C.ar      1 R04         0.0076
     17 C4C        65.0300   69.2140   68.2950 C.ar      1 R04        -0.0350
     18 C5C        64.0740   68.7300   67.3470 C.ar      1 R04         0.1519
     19 C1D        67.2010   71.2800   70.0320 C.ar      1 R04        -0.0084
     20 C6D        67.6540   69.9860   70.4470 C.ar      1 R04        -0.0526
     21 C5D        68.5200   69.8510   71.5710 C.ar      1 R04        -0.0532
     22 C4D        68.9380   71.0120   72.2840 C.ar      1 R04         0.0115
     23 C3D        68.4880   72.2990   71.8690 C.ar      1 R04        -0.0532
     24 C2D        67.6280   72.4250   70.7540 C.ar      1 R04        -0.0526
     25 F          63.6830   67.4580   67.4060 F         1 R04        -0.1958
     26 BR27       70.0640   70.8500   73.7520 Br        1 R04        -0.0509
     27 C1E        65.1030   73.8280   66.4620 C.3       1 R04         0.0548
     28 C1F        62.3000   72.7590   59.9970 C.3       1 R04        -0.0403
     29 H1         63.5603   68.4257   57.1808 H         1 R04         0.0292
     30 H2         63.5582   70.3025   57.3687 H         1 R04         0.0292
     31 H3         61.9715   68.2296   58.9708 H         1 R04         0.0725
     32 H4         61.2493   70.0712   60.3342 H         1 R04         0.0997
     33 H5         61.0438   70.9449   58.7782 H         1 R04         0.0997
     34 H6         63.5013   71.4024   59.0534 H         1 R04         0.2060
     35 H7         64.4910   71.5707   61.1374 H         1 R04         0.0939
     36 H8         63.9269   69.8859   60.8727 H         1 R04         0.0939
     37 H9         62.3829   71.9125   62.6534 H         1 R04         0.0503
     38 H10        63.1716   68.9646   62.8630 H         1 R04         0.0478
     39 H11        60.9179   69.6732   64.3199 H         1 R04         0.0738
     40 H12        62.0080   70.9837   64.8864 H         1 R04         0.0738
     41 H13        63.5427   71.6242   65.5074 H         1 R04         0.0454
     42 H14        65.4416   68.5672   69.0613 H         1 R04         0.0553
     43 H15        67.3362   69.1040   69.9028 H         1 R04         0.0619
     44 H16        68.8592   68.8696   71.8821 H         1 R04         0.0640
     45 H17        68.8058   73.1833   72.4095 H         1 R04         0.0640
     46 H18        67.2905   73.4082   70.4467 H         1 R04         0.0619
     47 H19        65.6870   74.6945   66.8057 H         1 R04         0.0579
     48 H20        64.0297   74.0600   66.5276 H         1 R04         0.0579
     49 H21        65.3656   73.5994   65.4186 H         1 R04         0.0579
     50 H22        61.7502   73.0574   59.0922 H         1 R04         0.0778
     51 H23        63.1307   73.4593   60.1689 H         1 R04         0.0778
     52 H24        61.6203   72.7770   60.8617 H         1 R04         0.0778
@<TRIPOS>BOND
     1    1    2 2  
     2    2    3 1  
     3    3    4 1  
     4    4    5 1  
     5    4   28 1  
     6    5    6 1  
     7    6    7 2  
     8    7    8 1  
     9    8    9 1  
    10    9   10 1  
    11   10   11 ar 
    12   10   18 ar 
    13   11   12 ar 
    14   12   13 1  
    15   12   16 ar 
    16   13   14 1  
    17   13   27 1  
    18   14   15 2  
    19   15   16 1  
    20   15   19 1  
    21   16   17 ar 
    22   17   18 ar 
    23   18   25 1  
    24   19   20 ar 
    25   19   24 ar 
    26   20   21 ar 
    27   21   22 ar 
    28   22   23 ar 
    29   22   26 1  
    30   23   24 ar 
    31    1   29 1  
    32    1   30 1  
    33    2   31 1  
    34    3   32 1  
    35    3   33 1  
    36    4   34 1  
    37    5   35 1  
    38    5   36 1  
    39    6   37 1  
    40    7   38 1  
    41    8   39 1  
    42    8   40 1  
    43   11   41 1  
    44   17   42 1  
    45   20   43 1  
    46   21   44 1  
    47   23   45 1  
    48   24   46 1  
    49   27   47 1  
    50   27   48 1  
    51   27   49 1  
    52   28   50 1  
    53   28   51 1  
    54   28   52 1  
@<TRIPOS>SUBSTRUCTURE
     1 R04         1

