### 
### Created by X-TOOL on Mon Sep 10 21:12:50 2018
### 

@<TRIPOS>MOLECULE
1h3b_ligand
   56    58     1     0     0
SMALL
GAST_HUCK


@<TRIPOS>ATOM
      1 C3A        63.5350   67.5640   58.0500 C.2       1 R46        -0.1125
      2 C2A        63.3640   68.8740   58.2570 C.2       1 R46        -0.0447
      3 C1A        62.0090   69.5080   58.4530 C.3       1 R46        -0.0043
      4 N1         62.0400   70.6380   59.4220 N.4       1 R46         0.2462
      5 C1B        62.2070   70.2270   60.8510 C.3       1 R46        -0.0305
      6 C2B        62.2050   71.3570   61.9130 C.3       1 R46        -0.0125
      7 C3B        63.4780   71.3250   62.8160 C.3       1 R46        -0.0482
      8 C4B        63.6480   70.0070   63.6460 C.3       1 R46        -0.0504
      9 C5B        62.3510   69.5920   64.4220 C.3       1 R46        -0.0247
     10 C6B        62.4860   69.7140   65.9620 C.3       1 R46         0.0723
     11 O          63.7090   69.0920   66.3980 O.3       1 R46        -0.3128
     12 C1C        64.5150   69.6940   67.3780 C.ar      1 R46         0.0991
     13 C2C        65.1610   70.9130   67.0510 C.ar      1 R46        -0.0249
     14 C3C        65.9900   71.5690   68.0040 C.ar      1 R46        -0.0523
     15 N2D        66.9900   73.1300   70.4060 N.2       1 R46        -0.2633
     16 C3D        67.0920   71.7810   70.2660 C.2       1 R46         0.0558
     17 C4C        66.1920   71.0230   69.3050 C.ar      1 R46         0.0016
     18 C5C        65.5370   69.7880   69.6420 C.ar      1 R46        -0.0523
     19 C6C        64.7060   69.1260   68.6910 C.ar      1 R46        -0.0249
     20 C3P        68.0700   71.2510   71.0680 C.ar      1 R46         0.0277
     21 C4D        68.4940   69.9050   71.2230 C.ar      1 R46        -0.0478
     22 C5D        69.5250   69.6210   72.1180 C.ar      1 R46        -0.0525
     23 S1D        67.9640   73.8700   71.4260 S.3       1 R46        -0.0044
     24 C6D        70.1370   70.6600   72.8580 C.ar      1 R46         0.0131
     25 C7D        69.7270   72.0000   72.7140 C.ar      1 R46        -0.0311
     26 C7P        68.6840   72.3020   71.8120 C.ar      1 R46         0.0533
     27 BR28       71.4810   70.2380   74.0180 Br        1 R46        -0.0468
     28 C1E        60.8420   71.4920   59.2250 C.3       1 R46        -0.0415
     29 H1         64.5374   67.1604   57.9147 H         1 R46         0.0292
     30 H2         62.6719   66.9008   58.0167 H         1 R46         0.0292
     31 H3         64.2448   69.5138   58.2855 H         1 R46         0.0725
     32 H4         61.3127   68.7427   58.8265 H         1 R46         0.0997
     33 H5         61.6531   69.8855   57.4830 H         1 R46         0.0997
     34 H6         62.8470   71.1965   59.1922 H         1 R46         0.2047
     35 H7         63.1666   69.6957   60.9336 H         1 R46         0.0814
     36 H8         61.3846   69.5391   61.0968 H         1 R46         0.0814
     37 H9         61.3162   71.2413   62.5507 H         1 R46         0.0317
     38 H10        62.1621   72.3274   61.3967 H         1 R46         0.0317
     39 H11        63.4231   72.1696   63.5186 H         1 R46         0.0267
     40 H12        64.3610   71.4417   62.1706 H         1 R46         0.0267
     41 H13        64.4585   70.1553   64.3747 H         1 R46         0.0266
     42 H14        63.9184   69.1930   62.9573 H         1 R46         0.0266
     43 H15        62.1170   68.5460   64.1748 H         1 R46         0.0291
     44 H16        61.5256   70.2402   64.0924 H         1 R46         0.0291
     45 H17        61.6317   69.2157   66.4436 H         1 R46         0.0618
     46 H18        62.4970   70.7772   66.2440 H         1 R46         0.0618
     47 H19        65.0225   71.3485   66.0680 H         1 R46         0.0564
     48 H20        66.4762   72.5000   67.7357 H         1 R46         0.0651
     49 H21        65.6761   69.3569   70.6268 H         1 R46         0.0651
     50 H22        64.2171   68.1951   68.9545 H         1 R46         0.0564
     51 H23        68.0238   69.1107   70.6547 H         1 R46         0.0661
     52 H24        69.8595   68.5981   72.2475 H         1 R46         0.0602
     53 H25        70.2048   72.7866   73.2867 H         1 R46         0.0612
     54 H26        60.7597   71.7690   58.1636 H         1 R46         0.0778
     55 H27        60.9363   72.4024   59.8352 H         1 R46         0.0778
     56 H28        59.9423   70.9376   59.5301 H         1 R46         0.0778
@<TRIPOS>BOND
     1    2    1 2  
     2    3    2 1  
     3    4    3 1  
     4    5    4 1  
     5    4   28 1  
     6    6    5 1  
     7    7    6 1  
     8    8    7 1  
     9    9    8 1  
    10   10    9 1  
    11   11   10 1  
    12   12   11 1  
    13   13   12 ar 
    14   12   19 ar 
    15   14   13 ar 
    16   17   14 ar 
    17   16   15 2  
    18   15   23 1  
    19   16   17 1  
    20   16   20 1  
    21   17   18 ar 
    22   18   19 ar 
    23   20   21 ar 
    24   20   26 ar 
    25   21   22 ar 
    26   22   24 ar 
    27   23   26 1  
    28   24   25 ar 
    29   24   27 1  
    30   25   26 ar 
    31    1   29 1  
    32    1   30 1  
    33    2   31 1  
    34    3   32 1  
    35    3   33 1  
    36    4   34 1  
    37    5   35 1  
    38    5   36 1  
    39    6   37 1  
    40    6   38 1  
    41    7   39 1  
    42    7   40 1  
    43    8   41 1  
    44    8   42 1  
    45    9   43 1  
    46    9   44 1  
    47   10   45 1  
    48   10   46 1  
    49   13   47 1  
    50   14   48 1  
    51   18   49 1  
    52   19   50 1  
    53   21   51 1  
    54   22   52 1  
    55   25   53 1  
    56   28   54 1  
    57   28   55 1  
    58   28   56 1  
@<TRIPOS>SUBSTRUCTURE
     1 R46         1

