### 
### Created by X-TOOL on Mon Sep 10 21:12:51 2018
### 

@<TRIPOS>MOLECULE
1h3c_ligand
   56    58     1     0     0
SMALL
GAST_HUCK


@<TRIPOS>ATOM
      1 C3A        63.1060   69.2390   59.0870 C.2       1 R79        -0.1125
      2 C2A        62.0440   69.9890   58.7510 C.2       1 R79        -0.0447
      3 C1A        61.3890   71.0240   59.6580 C.3       1 R79        -0.0043
      4 N1         62.2950   71.5670   60.7140 N.4       1 R79         0.2462
      5 C1B        61.9190   71.1130   62.0840 C.3       1 R79        -0.0305
      6 C2B        62.8840   70.0620   62.7100 C.3       1 R79        -0.0125
      7 C3B        63.7150   70.6710   63.8690 C.3       1 R79        -0.0482
      8 C4B        63.1200   70.2760   65.2450 C.3       1 R79        -0.0504
      9 C5B        63.9080   69.1070   65.8830 C.3       1 R79        -0.0247
     10 C6B        65.0700   69.6280   66.7630 C.3       1 R79         0.0721
     11 O          64.5380   70.1560   67.9960 O.3       1 R79        -0.3146
     12 C6C        65.4980   70.6120   68.8960 C.ar      1 R79         0.0938
     13 C7C        66.2660   69.6930   69.7000 C.ar      1 R79        -0.0115
     14 C7P        67.2230   70.2420   70.5810 C.ar      1 R79         0.0435
     15 S1C        68.3130   69.3950   71.6850 S.3       1 R79        -0.0076
     16 N2C        68.8950   70.8010   72.1360 N.2       1 R79        -0.2635
     17 C3C        68.4070   71.9460   71.5910 C.2       1 R79         0.0563
     18 C3P        67.4130   71.6710   70.6650 C.ar      1 R79         0.0179
     19 C4C        66.6430   72.5380   69.8700 C.ar      1 R79        -0.0561
     20 C5C        65.6960   71.9940   68.9960 C.ar      1 R79        -0.0305
     21 C1D        68.9810   73.2910   72.0370 C.ar      1 R79         0.0121
     22 C6D        70.3450   73.5470   71.7720 C.ar      1 R79        -0.0427
     23 C5D        70.9500   74.7870   72.1750 C.ar      1 R79        -0.0462
     24 C4D        70.1960   75.7880   72.8500 C.ar      1 R79         0.0180
     25 C3D        68.8170   75.5480   73.1260 C.ar      1 R79        -0.0462
     26 C2D        68.1990   74.2990   72.7230 C.ar      1 R79        -0.0427
     27 BR27       71.0330   77.3680   73.3660 Br        1 R79        -0.0453
     28 C1E        62.3040   73.0610   60.6840 C.3       1 R79        -0.0415
     29 H1         63.5122   68.5209   58.3762 H         1 R79         0.0292
     30 H2         63.5610   69.3489   60.0703 H         1 R79         0.0292
     31 H3         61.6198   69.8474   57.7580 H         1 R79         0.0725
     32 H4         60.5253   70.5543   60.1514 H         1 R79         0.0997
     33 H5         61.0441   71.8617   59.0341 H         1 R79         0.0997
     34 H6         63.2273   71.2371   60.5192 H         1 R79         0.2047
     35 H7         60.9142   70.6682   62.0337 H         1 R79         0.0814
     36 H8         61.8977   71.9936   62.7429 H         1 R79         0.0814
     37 H9         63.5703   69.6986   61.9310 H         1 R79         0.0317
     38 H10        62.2920   69.2204   63.0988 H         1 R79         0.0317
     39 H11        63.7119   71.7671   63.7769 H         1 R79         0.0267
     40 H12        64.7487   70.3005   63.8042 H         1 R79         0.0267
     41 H13        62.0725   69.9695   65.1079 H         1 R79         0.0266
     42 H14        63.1626   71.1458   65.9170 H         1 R79         0.0266
     43 H15        64.3198   68.4736   65.0835 H         1 R79         0.0291
     44 H16        63.2247   68.5121   66.5068 H         1 R79         0.0291
     45 H17        65.6093   70.4223   66.2262 H         1 R79         0.0617
     46 H18        65.7609   68.8015   66.9856 H         1 R79         0.0617
     47 H19        66.1142   68.6219   69.6304 H         1 R79         0.0506
     48 H20        66.7810   73.6113   69.9334 H         1 R79         0.0638
     49 H21        65.1008   72.6592   68.3809 H         1 R79         0.0521
     50 H22        70.9413   72.8007   71.2596 H         1 R79         0.0678
     51 H23        71.9981   74.9628   71.9613 H         1 R79         0.0656
     52 H24        68.2293   76.3011   73.6383 H         1 R79         0.0656
     53 H25        67.1512   74.1199   72.9354 H         1 R79         0.0678
     54 H26        62.5805   73.4058   59.6767 H         1 R79         0.0778
     55 H27        63.0353   73.4380   61.4141 H         1 R79         0.0778
     56 H28        61.3029   73.4389   60.9390 H         1 R79         0.0778
@<TRIPOS>BOND
     1    1    2 2  
     2    2    3 1  
     3    3    4 1  
     4    4    5 1  
     5    4   28 1  
     6    5    6 1  
     7    6    7 1  
     8    7    8 1  
     9    8    9 1  
    10    9   10 1  
    11   10   11 1  
    12   11   12 1  
    13   12   13 ar 
    14   12   20 ar 
    15   13   14 ar 
    16   14   15 1  
    17   14   18 ar 
    18   15   16 1  
    19   16   17 2  
    20   17   18 1  
    21   17   21 1  
    22   18   19 ar 
    23   19   20 ar 
    24   21   22 ar 
    25   21   26 ar 
    26   22   23 ar 
    27   23   24 ar 
    28   24   25 ar 
    29   24   27 1  
    30   25   26 ar 
    31    1   29 1  
    32    1   30 1  
    33    2   31 1  
    34    3   32 1  
    35    3   33 1  
    36    4   34 1  
    37    5   35 1  
    38    5   36 1  
    39    6   37 1  
    40    6   38 1  
    41    7   39 1  
    42    7   40 1  
    43    8   41 1  
    44    8   42 1  
    45    9   43 1  
    46    9   44 1  
    47   10   45 1  
    48   10   46 1  
    49   13   47 1  
    50   19   48 1  
    51   20   49 1  
    52   22   50 1  
    53   23   51 1  
    54   25   52 1  
    55   26   53 1  
    56   28   54 1  
    57   28   55 1  
    58   28   56 1  
@<TRIPOS>SUBSTRUCTURE
     1 R79         1

