### 
### Created by X-TOOL on Mon Sep 10 21:12:49 2018
### 

@<TRIPOS>MOLECULE
1h46_ligand
   38    39     1     0     0
SMALL
GAST_HUCK


@<TRIPOS>ATOM
      1 C1          3.9310    9.0750   25.8320 C.ar      1 RNP         0.1048
      2 C2          4.0120    9.7700   24.6360 C.ar      1 RNP        -0.0340
      3 C3          3.4940   11.0710   24.5410 C.ar      1 RNP        -0.0744
      4 C4          2.8940   11.7180   25.6300 C.ar      1 RNP        -0.0685
      5 C5          2.2160   11.6720   27.9920 C.ar      1 RNP        -0.0587
      6 C6          2.1610   10.9560   29.1890 C.ar      1 RNP        -0.0640
      7 C7          2.6580    9.6600   29.3120 C.ar      1 RNP        -0.0633
      8 C8          3.2460    9.0320   28.2190 C.ar      1 RNP        -0.0532
      9 C9          3.3220    9.7170   27.0170 C.ar      1 RNP         0.0178
     10 C10         2.7870   11.0870   26.8670 C.ar      1 RNP        -0.0261
     11 O1          4.4140    7.8060   25.9980 O.3       1 RNP        -0.3070
     12 C11         5.1050    7.1650   24.8980 C.3       1 RNP         0.1159
     13 C12         5.7800    5.8750   25.3090 C.3       1 RNP         0.1420
     14 O2          6.3770    6.0290   26.6000 O.3       1 RNP        -0.3668
     15 C13         6.8660    5.5380   24.3220 C.2       1 RNP         0.0304
     16 N1          7.2460    4.2580   24.2600 N.2       1 RNP        -0.3426
     17 C14         7.1920    3.3470   25.4010 C.3       1 RNP         0.0053
     18 C15         6.8380    1.9490   24.8980 C.3       1 RNP        -0.0537
     19 C16         8.5500    3.2940   26.0960 C.3       1 RNP        -0.0537
     20 H1          4.4763    9.3081   23.7722 H         1 RNP         0.0499
     21 H2          3.5602   11.5931   23.5933 H         1 RNP         0.0581
     22 H3          2.5079   12.7235   25.5078 H         1 RNP         0.0493
     23 H4          1.8160   12.6781   27.9397 H         1 RNP         0.0599
     24 H5          1.7140   11.4267   30.0571 H         1 RNP         0.0614
     25 H6          2.5863    9.1405   30.2607 H         1 RNP         0.0591
     26 H7          3.6377    8.0250   28.3060 H         1 RNP         0.0631
     27 H8          5.8694    7.8552   24.5117 H         1 RNP         0.0682
     28 H9          4.3759    6.9440   24.1045 H         1 RNP         0.0682
     29 H10         5.0371    5.0643   25.3372 H         1 RNP         0.0905
     30 H11         5.7047    6.2479   27.2345 H         1 RNP         0.2150
     31 H12         7.3196    6.2998   23.6897 H         1 RNP         0.1232
     32 H13         6.4275    3.6922   26.1126 H         1 RNP         0.0403
     33 H14         6.7943    1.2533   25.7490 H         1 RNP         0.0240
     34 H15         7.6053    1.6101   24.1864 H         1 RNP         0.0240
     35 H16         5.8594    1.9766   24.3964 H         1 RNP         0.0240
     36 H17         8.4969    2.6057   26.9524 H         1 RNP         0.0240
     37 H18         8.8202    4.2998   26.4502 H         1 RNP         0.0240
     38 H19         9.3115    2.9383   25.3864 H         1 RNP         0.0240
@<TRIPOS>BOND
     1    2    1 ar 
     2    1    9 ar 
     3    1   11 1  
     4    3    2 ar 
     5    4    3 ar 
     6   10    4 ar 
     7    5    6 ar 
     8   10    5 ar 
     9    6    7 ar 
    10    7    8 ar 
    11    8    9 ar 
    12    9   10 ar 
    13   11   12 1  
    14   12   13 1  
    15   13   14 1  
    16   13   15 1  
    17   15   16 2  
    18   16   17 1  
    19   17   18 1  
    20   17   19 1  
    21    2   20 1  
    22    3   21 1  
    23    4   22 1  
    24    5   23 1  
    25    6   24 1  
    26    7   25 1  
    27    8   26 1  
    28   12   27 1  
    29   12   28 1  
    30   13   29 1  
    31   14   30 1  
    32   15   31 1  
    33   17   32 1  
    34   18   33 1  
    35   18   34 1  
    36   18   35 1  
    37   19   36 1  
    38   19   37 1  
    39   19   38 1  
@<TRIPOS>SUBSTRUCTURE
     1 RNP         1

