### 
### Created by X-TOOL on Fri Nov 18 12:07:23 2016
### 

@<TRIPOS>MOLECULE
1h4n_ligand
   20    19     1     0     0
SMALL
GAST_HUCK


@<TRIPOS>ATOM
      1 C          -5.7840    1.0300   15.8510 C.3       1 TRS         0.0569
      2 C1         -4.5160    1.9070   15.7840 C.3       1 TRS         0.0939
      3 C2         -6.8770    1.6260   14.9710 C.3       1 TRS         0.0939
      4 C3         -6.3320    0.9090   17.3100 C.3       1 TRS         0.0939
      5 N          -5.4230   -0.2690   15.3070 N.4       1 TRS         0.2279
      6 O1         -3.9790    1.7210   14.4810 O.3       1 TRS        -0.3890
      7 O2         -7.9520    0.7020   14.9540 O.3       1 TRS        -0.3890
      8 O3         -5.4140    0.2480   18.1630 O.3       1 TRS        -0.3890
      9 H1         -3.7897    1.5875   16.5458 H         1 TRS         0.0618
     10 H2         -4.7738    2.9644   15.9437 H         1 TRS         0.0618
     11 H3         -6.4968    1.7805   13.9505 H         1 TRS         0.0618
     12 H4         -7.2130    2.5874   15.3866 H         1 TRS         0.0618
     13 H5         -7.2734    0.3403   17.2909 H         1 TRS         0.0618
     14 H6         -6.5212    1.9183   17.7043 H         1 TRS         0.0618
     15 H7         -5.0745   -0.1550   14.3680 H         1 TRS         0.2002
     16 H8         -6.2356   -0.8653   15.2937 H         1 TRS         0.2002
     17 H9         -4.7086   -0.6873   15.8820 H         1 TRS         0.2002
     18 H10        -3.1909    2.2432   14.3870 H         1 TRS         0.2097
     19 H11        -7.6508   -0.1260   14.5989 H         1 TRS         0.2097
     20 H12        -5.2494   -0.6270   17.8319 H         1 TRS         0.2097
@<TRIPOS>BOND
     1    1    2 1  
     2    1    3 1  
     3    1    4 1  
     4    1    5 1  
     5    2    6 1  
     6    3    7 1  
     7    4    8 1  
     8    2    9 1  
     9    2   10 1  
    10    3   11 1  
    11    3   12 1  
    12    4   13 1  
    13    4   14 1  
    14    5   15 1  
    15    5   16 1  
    16    5   17 1  
    17    6   18 1  
    18    7   19 1  
    19    8   20 1  
@<TRIPOS>SUBSTRUCTURE
     1 TRS         1

