### 
### Created by X-TOOL on Mon Sep 10 21:12:49 2018
### 

@<TRIPOS>MOLECULE
1h4w_ligand
   18    18     1     0     0
SMALL
GAST_HUCK


@<TRIPOS>ATOM
      1 C1         50.3420   36.7890   39.3750 C.ar      1 BEN         0.0260
      2 C2         50.3710   35.9320   40.4660 C.ar      1 BEN        -0.0565
      3 C3         49.8970   34.5860   40.2460 C.ar      1 BEN        -0.0618
      4 C4         49.3980   34.0600   38.9960 C.ar      1 BEN        -0.0618
      5 C5         49.3930   35.0100   37.8910 C.ar      1 BEN        -0.0618
      6 C6         49.8710   36.3660   38.1130 C.ar      1 BEN        -0.0565
      7 C          50.7960   38.1370   39.5110 C.cat     1 BEN         0.2356
      8 N1         50.9760   38.6780   40.7280 N.pl3     1 BEN        -0.2721
      9 N2         51.0680   38.9190   38.4750 N.pl3     1 BEN        -0.2721
     10 H1         50.7316   36.2569   41.4353 H         1 BEN         0.0617
     11 H2         49.9173   33.9103   41.0934 H         1 BEN         0.0618
     12 H3         49.0540   33.0377   38.8886 H         1 BEN         0.0618
     13 H4         49.0364   34.7091   36.9126 H         1 BEN         0.0618
     14 H5         49.8654   37.0696   37.2884 H         1 BEN         0.0617
     15 H6         51.3036   39.6506   40.8159 H         1 BEN         0.3181
     16 H7         50.7864   38.1201   41.5728 H         1 BEN         0.3181
     17 H8         50.9501   38.5627   37.5158 H         1 BEN         0.3181
     18 H9         51.3971   39.8827   38.6296 H         1 BEN         0.3181
@<TRIPOS>BOND
     1    1    7 1  
     2    1    6 ar 
     3    1    2 ar 
     4    2    3 ar 
     5    3    4 ar 
     6    4    5 ar 
     7    5    6 ar 
     8    7    9 ar 
     9    7    8 ar 
    10    2   10 1  
    11    3   11 1  
    12    4   12 1  
    13    5   13 1  
    14    6   14 1  
    15    8   15 1  
    16    8   16 1  
    17    9   17 1  
    18    9   18 1  
@<TRIPOS>SUBSTRUCTURE
     1 BEN         1

