### 
### Created by X-TOOL on Mon Sep 10 21:12:48 2018
### 

@<TRIPOS>MOLECULE
1h5u_ligand
   54    57     1     0     0
SMALL
GAST_HUCK


@<TRIPOS>ATOM
      1 CL1        17.5410    7.8720   49.4580 Cl        1 CHI        -0.0811
      2 C1         18.0060    9.2160   50.4330 C.ar      1 CHI         0.0253
      3 C2         18.6310   10.3740   49.8430 C.ar      1 CHI        -0.0600
      4 C3         19.0250   11.4990   50.6600 C.ar      1 CHI        -0.0398
      5 C4         18.7560   11.3950   52.0860 C.ar      1 CHI         0.0680
      6 N1         19.0160   12.2630   53.0610 N.pl3     1 CHI        -0.2669
      7 C5         18.1400   10.2410   52.6500 C.ar      1 CHI        -0.0169
      8 C6         17.7450    9.1300   51.8400 C.ar      1 CHI        -0.0571
      9 C7         18.0740   10.5620   54.1090 C.2       1 CHI        -0.0391
     10 C8         18.6250   11.8060   54.2490 C.2       1 CHI         0.1323
     11 C9         18.8500   12.6150   55.4540 C.2       1 CHI         0.2292
     12 O1         19.3770   13.7200   55.2970 O.2       1 CHI        -0.3839
     13 N2         18.4790   12.1470   56.6810 N.am      1 CHI        -0.2620
     14 C10        18.6990   12.9040   57.9270 C.3       1 CHI         0.1394
     15 C11        20.2490   13.1240   58.1110 C.2       1 CHI         0.2060
     16 O2         20.9490   12.1140   58.1910 O.2       1 CHI        -0.3942
     17 N3         20.8430   14.4190   58.1880 N.am      1 CHI        -0.2710
     18 C12        22.3060   14.5480   58.3810 C.3       1 CHI         0.0363
     19 C13        22.5500   15.2990   59.7170 C.3       1 CHI        -0.0063
     20 C14        21.8190   16.6800   59.7320 C.3       1 CHI         0.0589
     21 O3         22.5130   17.5950   58.8430 O.3       1 CHI        -0.3917
     22 C15        20.2990   16.5930   59.3290 C.3       1 CHI        -0.0063
     23 C16        20.0300   15.6670   58.0940 C.3       1 CHI         0.0363
     24 C17        18.1920   12.1540   59.2350 C.3       1 CHI         0.0195
     25 C18        18.4890   13.0350   60.4520 C.ar      1 CHI        -0.0424
     26 C19        17.6570   14.1900   60.7060 C.ar      1 CHI        -0.0618
     27 C20        17.9430   15.0410   61.8310 C.ar      1 CHI        -0.0349
     28 C21        19.0670   14.7290   62.7010 C.ar      1 CHI         0.1248
     29 F1         19.3410   15.5150   63.7350 F         1 CHI        -0.1893
     30 C22        19.8810   13.5830   62.4440 C.ar      1 CHI        -0.0349
     31 C23        19.6040   12.7340   61.3340 C.ar      1 CHI        -0.0618
     32 H1         18.8074   10.4009   48.7738 H         1 CHI         0.0556
     33 H2         19.4971   12.3760   50.2320 H         1 CHI         0.0550
     34 H3         19.4655   13.1780   52.9142 H         1 CHI         0.2262
     35 H4         17.2676    8.2583   52.2727 H         1 CHI         0.0564
     36 H5         17.6691    9.9326   54.9001 H         1 CHI         0.0400
     37 H6         18.0385   11.2510   56.7376 H         1 CHI         0.1875
     38 H7         18.1849   13.8731   57.8461 H         1 CHI         0.0822
     39 H8         22.7436   15.1173   57.5477 H         1 CHI         0.0523
     40 H9         22.7661   13.5498   58.4247 H         1 CHI         0.0523
     41 H10        23.6302   15.4637   59.8437 H         1 CHI         0.0310
     42 H11        22.1728   14.6846   60.5478 H         1 CHI         0.0310
     43 H12        21.8714   17.0782   60.7560 H         1 CHI         0.0594
     44 H13        22.5105   17.2412   57.9614 H         1 CHI         0.2098
     45 H14        19.9445   17.6060   59.0879 H         1 CHI         0.0310
     46 H15        19.7334   16.2012   60.1872 H         1 CHI         0.0310
     47 H16        18.9627   15.4023   58.0661 H         1 CHI         0.0523
     48 H17        20.2985   16.2052   57.1730 H         1 CHI         0.0523
     49 H18        18.7165   11.1925   59.3372 H         1 CHI         0.0466
     50 H19        17.1090   11.9752   59.1629 H         1 CHI         0.0466
     51 H20        16.8218   14.4139   60.0522 H         1 CHI         0.0547
     52 H21        17.3248   15.9092   62.0290 H         1 CHI         0.0587
     53 H22        20.7154   13.3580   63.0984 H         1 CHI         0.0587
     54 H23        20.2241   11.8647   61.1476 H         1 CHI         0.0547
@<TRIPOS>BOND
     1    1    2 1  
     2    2    3 ar 
     3    2    8 ar 
     4    3    4 ar 
     5    4    5 ar 
     6    5    6 1  
     7    5    7 ar 
     8    6   10 1  
     9    7    8 ar 
    10    7    9 1  
    11    9   10 2  
    12   10   11 1  
    13   11   12 2  
    14   11   13 am 
    15   13   14 1  
    16   14   15 1  
    17   14   24 1  
    18   15   16 2  
    19   15   17 am 
    20   17   18 1  
    21   17   23 1  
    22   18   19 1  
    23   19   20 1  
    24   20   21 1  
    25   20   22 1  
    26   22   23 1  
    27   24   25 1  
    28   25   26 ar 
    29   25   31 ar 
    30   26   27 ar 
    31   27   28 ar 
    32   28   29 1  
    33   28   30 ar 
    34   30   31 ar 
    35    3   32 1  
    36    4   33 1  
    37    6   34 1  
    38    8   35 1  
    39    9   36 1  
    40   13   37 1  
    41   14   38 1  
    42   18   39 1  
    43   18   40 1  
    44   19   41 1  
    45   19   42 1  
    46   20   43 1  
    47   21   44 1  
    48   22   45 1  
    49   22   46 1  
    50   23   47 1  
    51   23   48 1  
    52   24   49 1  
    53   24   50 1  
    54   26   51 1  
    55   27   52 1  
    56   30   53 1  
    57   31   54 1  
@<TRIPOS>SUBSTRUCTURE
     1 CHI         1

