### 
### Created by X-TOOL on Mon Sep 10 21:12:48 2018
### 

@<TRIPOS>MOLECULE
1h5v_ligand
  111   115     1     0     0
SMALL
GAST_HUCK


@<TRIPOS>ATOM
      1 C1         -4.4270   43.7280   11.9730 C.3       1 GLC         0.1334
      2 C2         -5.7070   43.0230   11.6400 C.3       1 GLC         0.1189
      3 C3         -6.8880   43.9750   11.7590 C.3       1 GLC         0.1126
      4 C4         -6.8880   44.6830   13.0950 C.3       1 GLC         0.1118
      5 C5         -5.5190   45.3580   13.2750 C.3       1 GLC         0.1115
      6 C6         -5.3720   46.0850   14.5860 C.3       1 GLC         0.0730
      7 O2         -5.6890   42.4950   10.2930 O.3       1 GLC        -0.3857
      8 O3         -8.1220   43.2520   11.6090 O.3       1 GLC        -0.3865
      9 O4         -7.9520   45.6360   13.1030 O.3       1 GLC        -0.3865
     10 O5         -4.5010   44.3910   13.2340 O.3       1 GLC        -0.3553
     11 O6         -5.5570   45.2470   15.6890 O.3       1 GLC        -0.3924
     12 C1          1.2250   43.4920   11.7580 C.3       1 SSG         0.1333
     13 C2          0.6200   43.9100   13.0880 C.3       1 SSG         0.1175
     14 O2          1.5320   43.5350   14.1670 O.3       1 SSG        -0.3858
     15 C3         -0.7320   43.1840   13.2430 C.3       1 SSG         0.0986
     16 O3         -1.3350   43.5310   14.4840 O.3       1 SSG        -0.3879
     17 C4         -1.6410   43.5780   12.0700 C.3       1 SSG         0.0645
     18 C5         -0.9260   43.4150   10.7260 C.3       1 SSG         0.0975
     19 O5          0.3510   44.0730   10.7500 O.3       1 SSG        -0.3567
     20 C6         -1.6820   43.9590    9.5310 C.3       1 SSG         0.0716
     21 O6         -2.0550   45.3120    9.7200 O.3       1 SSG        -0.3924
     22 S4         -3.1070   42.4890   12.0950 S.3       1 SSG        -0.1184
     23 C1          4.8220   41.6750    7.9840 C.3       1 SGC         0.1333
     24 C2          4.7100   43.1730    7.8770 C.3       1 SGC         0.1175
     25 O2          6.0060   43.6750    7.5200 O.3       1 SGC        -0.3858
     26 C3          4.2760   43.8660    9.1980 C.3       1 SGC         0.0986
     27 O3          3.7720   45.1600    8.8400 O.3       1 SGC        -0.3879
     28 C4          3.2200   43.0830    9.9350 C.3       1 SGC         0.0645
     29 C5          3.6950   41.6530   10.0590 C.3       1 SGC         0.0975
     30 O5          3.7980   41.0760    8.7580 O.3       1 SGC        -0.3567
     31 C6          2.7940   40.6990   10.8200 C.3       1 SGC         0.0716
     32 O6          1.4990   40.6370   10.2480 O.3       1 SGC        -0.3924
     33 S4          2.8880   43.9630   11.5030 S.3       1 SGC        -0.1184
     34 C1          6.8730   37.1760    5.1570 C.3       1 SGC         0.1333
     35 C2          5.5470   37.0140    5.9000 C.3       1 SGC         0.1175
     36 O2          4.7370   35.9680    5.2560 O.3       1 SGC        -0.3858
     37 C3          4.7640   38.3060    5.9250 C.3       1 SGC         0.0986
     38 O3          3.5610   38.1130    6.6600 O.3       1 SGC        -0.3879
     39 C4          5.6300   39.4290    6.4950 C.3       1 SGC         0.0645
     40 C5          6.9530   39.4670    5.7650 C.3       1 SGC         0.0975
     41 O5          7.5790   38.2060    5.8770 O.3       1 SGC        -0.3567
     42 C6          7.8930   40.4830    6.2680 C.3       1 SGC         0.0716
     43 O6          8.1530   40.3030    7.6490 O.3       1 SGC        -0.3924
     44 S4          4.7240   40.9820    6.3170 S.3       1 SGC        -0.1184
     45 C1         11.6310   35.5440    2.6340 C.3       1 MA3         0.1875
     46 C2         11.4470   36.8620    3.4160 C.3       1 MA3         0.1327
     47 C3         10.3780   36.6600    4.5100 C.3       1 MA3         0.1001
     48 C4          9.0980   36.1030    3.8580 C.3       1 MA3         0.0646
     49 C5          9.3980   34.8890    2.9510 C.3       1 MA3         0.0990
     50 C6          8.1290   34.3620    2.2420 C.3       1 MA3         0.0716
     51 C7         12.5680   33.4010    2.6510 C.3       1 MA3         0.0395
     52 O1         12.1620   34.5070    3.4290 O.3       1 MA3        -0.3520
     53 O2         12.6810   37.3070    3.9430 O.3       1 MA3        -0.3842
     54 O3         10.0700   37.8650    5.1960 O.3       1 MA3        -0.3879
     55 S4          7.8830   35.6890    5.1320 S.3       1 MA3        -0.1184
     56 O5         10.4240   35.1460    2.0000 O.3       1 MA3        -0.3420
     57 O6          7.4150   35.3140    1.4680 O.3       1 MA3        -0.3924
     58 H1         -4.1949   44.4581   11.1837 H         1 GLC         0.0740
     59 H2         -5.8410   42.1916   12.3476 H         1 GLC         0.0655
     60 H3         -6.8141   44.7271   10.9597 H         1 GLC         0.0647
     61 H4         -7.0457   43.9565   13.9058 H         1 GLC         0.0647
     62 H5         -5.3791   46.0759   12.4534 H         1 GLC         0.0646
     63 H6         -6.1188   46.8916   14.6272 H         1 GLC         0.0584
     64 H7         -4.3619   46.5175   14.6377 H         1 GLC         0.0584
     65 H8         -5.5969   43.2105    9.6748 H         1 GLC         0.2100
     66 H9         -8.8509   43.8601   11.6489 H         1 GLC         0.2100
     67 H10        -8.7804   45.1850   12.9898 H         1 GLC         0.2100
     68 H11        -5.4546   45.7502   16.4882 H         1 GLC         0.2095
     69 H12         1.1833   42.3951   11.6869 H         1 GLC         0.0740
     70 H13         0.4607   44.9983   13.1039 H         1 GLC         0.0654
     71 H14         1.1579   43.7944   15.0009 H         1 GLC         0.2100
     72 H15        -0.5647   42.0970   13.2204 H         1 GLC         0.0632
     73 H16        -0.7605   43.2759   15.1963 H         1 GLC         0.2099
     74 H17        -1.9529   44.6262   12.1881 H         1 GLC         0.0465
     75 H18        -0.7687   42.3380   10.5673 H         1 GLC         0.0631
     76 H19        -2.5898   43.3567    9.3789 H         1 GLC         0.0583
     77 H20        -1.0406   43.8870    8.6402 H         1 GLC         0.0583
     78 H21        -1.2752   45.8395    9.8470 H         1 GLC         0.2095
     79 H22         5.7945   41.4277    8.4346 H         1 GLC         0.0740
     80 H23         3.9803   43.4199    7.0918 H         1 GLC         0.0654
     81 H24         5.9681   44.6213    7.4445 H         1 GLC         0.2100
     82 H25         5.1518   43.9776    9.8541 H         1 GLC         0.0632
     83 H26         4.4564   45.6565    8.4069 H         1 GLC         0.2099
     84 H27         2.2899   43.0769    9.3477 H         1 GLC         0.0465
     85 H28         4.6811   41.6694   10.5461 H         1 GLC         0.0631
     86 H29         2.7082   41.0429   11.8613 H         1 GLC         0.0583
     87 H30         3.2410   39.6941   10.8013 H         1 GLC         0.0583
     88 H31         1.5650   40.3358    9.3495 H         1 GLC         0.2095
     89 H32         6.6789   37.4906    4.1210 H         1 GLC         0.0740
     90 H33         5.7616   36.7129    6.9360 H         1 GLC         0.0654
     91 H34         4.5639   36.2131    4.3546 H         1 GLC         0.2100
     92 H35         4.4949   38.5749    4.8929 H         1 GLC         0.0632
     93 H36         3.0676   38.9247    6.6765 H         1 GLC         0.2099
     94 H37         5.8188   39.2426    7.5625 H         1 GLC         0.0465
     95 H38         6.7506   39.6796    4.7049 H         1 GLC         0.0631
     96 H39         7.4589   41.4816    6.1121 H         1 GLC         0.0583
     97 H40         8.8386   40.4033    5.7118 H         1 GLC         0.0583
     98 H41         8.7606   40.9704    7.9453 H         1 GLC         0.2095
     99 H42        12.3643   35.7440    1.8388 H         1 GLC         0.0937
    100 H43        11.0818   37.6313    2.7198 H         1 GLC         0.0670
    101 H44        10.7582   35.9308    5.2405 H         1 GLC         0.0633
    102 H45         8.6697   36.8940    3.2249 H         1 GLC         0.0465
    103 H46         9.7613   34.0854    3.6084 H         1 GLC         0.0632
    104 H47         7.4474   33.9744    3.0134 H         1 GLC         0.0583
    105 H48         8.4312   33.5419    1.5740 H         1 GLC         0.0583
    106 H49        12.9742   32.6190    3.3094 H         1 GLC         0.0525
    107 H50        13.3429   33.7189    1.9379 H         1 GLC         0.0525
    108 H51        11.7032   33.0033    2.0996 H         1 GLC         0.0525
    109 H52        13.0105   36.6646    4.5605 H         1 GLC         0.2101
    110 H53         9.4214   37.6889    5.8674 H         1 GLC         0.2099
    111 H54         7.9808   35.6532    0.7844 H         1 GLC         0.2095
@<TRIPOS>BOND
     1    1    2 1  
     2    1   10 1  
     3    2    3 1  
     4    2    7 1  
     5    3    4 1  
     6    3    8 1  
     7    5    4 1  
     8    4    9 1  
     9    5    6 1  
    10   10    5 1  
    11    6   11 1  
    12   12   13 1  
    13   12   19 1  
    14   13   14 1  
    15   13   15 1  
    16   15   16 1  
    17   15   17 1  
    18   18   17 1  
    19   17   22 1  
    20   19   18 1  
    21   18   20 1  
    22   20   21 1  
    23   22    1 1  
    24   23   24 1  
    25   23   30 1  
    26   24   25 1  
    27   24   26 1  
    28   26   27 1  
    29   26   28 1  
    30   29   28 1  
    31   28   33 1  
    32   30   29 1  
    33   29   31 1  
    34   31   32 1  
    35   33   12 1  
    36   34   35 1  
    37   34   41 1  
    38   35   36 1  
    39   35   37 1  
    40   37   38 1  
    41   37   39 1  
    42   40   39 1  
    43   39   44 1  
    44   41   40 1  
    45   40   42 1  
    46   42   43 1  
    47   44   23 1  
    48   46   45 1  
    49   45   52 1  
    50   56   45 1  
    51   47   46 1  
    52   46   53 1  
    53   48   47 1  
    54   47   54 1  
    55   48   49 1  
    56   55   48 1  
    57   49   50 1  
    58   49   56 1  
    59   50   57 1  
    60   55   34 1  
    61   52   51 1  
    62    1   58 1  
    63    2   59 1  
    64    3   60 1  
    65    4   61 1  
    66    5   62 1  
    67    6   63 1  
    68    6   64 1  
    69    7   65 1  
    70    8   66 1  
    71    9   67 1  
    72   11   68 1  
    73   12   69 1  
    74   13   70 1  
    75   14   71 1  
    76   15   72 1  
    77   16   73 1  
    78   17   74 1  
    79   18   75 1  
    80   20   76 1  
    81   20   77 1  
    82   21   78 1  
    83   23   79 1  
    84   24   80 1  
    85   25   81 1  
    86   26   82 1  
    87   27   83 1  
    88   28   84 1  
    89   29   85 1  
    90   31   86 1  
    91   31   87 1  
    92   32   88 1  
    93   34   89 1  
    94   35   90 1  
    95   36   91 1  
    96   37   92 1  
    97   38   93 1  
    98   39   94 1  
    99   40   95 1  
   100   42   96 1  
   101   42   97 1  
   102   43   98 1  
   103   45   99 1  
   104   46  100 1  
   105   47  101 1  
   106   48  102 1  
   107   49  103 1  
   108   50  104 1  
   109   50  105 1  
   110   51  106 1  
   111   51  107 1  
   112   51  108 1  
   113   53  109 1  
   114   54  110 1  
   115   57  111 1  
@<TRIPOS>SUBSTRUCTURE
     1 GLC         1

