### 
### Created by X-TOOL on Mon Sep 10 21:12:48 2018
### 

@<TRIPOS>MOLECULE
1h60_ligand
   53    56     1     0     0
SMALL
GAST_HUCK


@<TRIPOS>ATOM
      1 C1         20.4150   11.8220   20.9750 C.3       1 STR        -0.0611
      2 C2         20.2220   10.6980   22.2400 C.3       1 STR         0.0243
      3 C3         20.1480    9.2870   21.6000 C.2       1 STR         0.1764
      4 O3         19.4000    8.4530   22.3120 O.2       1 STR        -0.3440
      5 C4         20.8070    8.9330   20.3650 C.2       1 STR         0.0476
      6 C5         21.5780    9.8770   19.8040 C.2       1 STR        -0.0413
      7 C6         22.4610    9.4270   18.6640 C.3       1 STR        -0.0169
      8 C7         22.2950   10.4040   17.5000 C.3       1 STR        -0.0393
      9 C8         22.6560   11.8440   17.7920 C.3       1 STR        -0.0416
     10 C9         21.5260   12.2770   18.8680 C.3       1 STR        -0.0619
     11 C10        21.6450   11.4490   20.1680 C.3       1 STR        -0.0378
     12 C11        21.5130   13.7670   19.1630 C.3       1 STR        -0.0582
     13 C12        21.4830   14.6370   17.7300 C.3       1 STR        -0.0456
     14 C13        22.6430   14.3040   16.8740 C.3       1 STR        -0.0105
     15 C14        22.3290   12.6130   16.6370 C.3       1 STR        -0.0308
     16 C15        23.1400   12.4240   15.3370 C.3       1 STR        -0.0469
     17 C16        22.9200   13.6880   14.5250 C.3       1 STR        -0.0335
     18 C17        22.4080   14.7380   15.4550 C.3       1 STR         0.0379
     19 C18        24.1040   14.4890   17.2930 C.3       1 STR        -0.0569
     20 C19        22.9920   11.6700   20.9330 C.3       1 STR        -0.0890
     21 C20        23.0780   16.1940   15.0590 C.2       1 STR         0.1055
     22 O20        24.0880   16.2660   14.6060 O.2       1 STR        -0.3916
     23 C21        22.1630   17.4860   15.8310 C.3       1 STR         0.0097
     24 H1         20.5407   12.8313   21.3940 H         1 STR         0.0172
     25 H2         19.5276   11.8025   20.3254 H         1 STR         0.0172
     26 H3         19.2945   10.9093   22.7924 H         1 STR         0.0483
     27 H4         21.0791   10.7546   22.9272 H         1 STR         0.0483
     28 H5         20.6845    7.9502   19.9121 H         1 STR         0.1318
     29 H6         22.1662    8.4167   18.3440 H         1 STR         0.0450
     30 H7         23.5111    9.4162   18.9912 H         1 STR         0.0450
     31 H8         21.2415   10.3775   17.1848 H         1 STR         0.0293
     32 H9         22.9336   10.0568   16.6744 H         1 STR         0.0293
     33 H10        23.6924   11.9816   18.1338 H         1 STR         0.0299
     34 H11        20.5518   12.0355   18.4180 H         1 STR         0.0187
     35 H12        22.4162   14.0334   19.7316 H         1 STR         0.0259
     36 H13        20.6202   14.0127   19.7567 H         1 STR         0.0259
     37 H14        21.5065   15.7118   17.9629 H         1 STR         0.0272
     38 H15        20.5567   14.3998   17.1862 H         1 STR         0.0272
     39 H16        21.2634   12.4354   16.4297 H         1 STR         0.0310
     40 H17        22.7774   11.5452   14.7836 H         1 STR         0.0270
     41 H18        24.2082   12.2975   15.5668 H         1 STR         0.0270
     42 H19        22.1836   13.4997   13.7298 H         1 STR         0.0293
     43 H20        23.8692   14.0153   14.0757 H         1 STR         0.0293
     44 H21        21.3207   14.8275   15.3144 H         1 STR         0.0535
     45 H22        24.2311   14.1601   18.3350 H         1 STR         0.0237
     46 H23        24.3783   15.5508   17.2077 H         1 STR         0.0237
     47 H24        24.7523   13.8890   16.6375 H         1 STR         0.0237
     48 H25        23.0031   11.0509   21.8422 H         1 STR         0.0112
     49 H26        23.0866   12.7303   21.2102 H         1 STR         0.0112
     50 H27        23.8332   11.3841   20.2845 H         1 STR         0.0112
     51 H28        22.6075   18.4574   15.5687 H         1 STR         0.0459
     52 H29        22.1904   17.3531   16.9226 H         1 STR         0.0459
     53 H30        21.1197   17.4545   15.4838 H         1 STR         0.0459
@<TRIPOS>BOND
     1    1    2 1  
     2    1   11 1  
     3    2    3 1  
     4    3    4 2  
     5    3    5 1  
     6    5    6 2  
     7    6    7 1  
     8    6   11 1  
     9    7    8 1  
    10    8    9 1  
    11    9   10 1  
    12    9   15 1  
    13   10   11 1  
    14   10   12 1  
    15   11   20 1  
    16   12   13 1  
    17   13   14 1  
    18   14   15 1  
    19   14   18 1  
    20   14   19 1  
    21   15   16 1  
    22   16   17 1  
    23   17   18 1  
    24   18   21 1  
    25   21   22 2  
    26   21   23 1  
    27    1   24 1  
    28    1   25 1  
    29    2   26 1  
    30    2   27 1  
    31    5   28 1  
    32    7   29 1  
    33    7   30 1  
    34    8   31 1  
    35    8   32 1  
    36    9   33 1  
    37   10   34 1  
    38   12   35 1  
    39   12   36 1  
    40   13   37 1  
    41   13   38 1  
    42   15   39 1  
    43   16   40 1  
    44   16   41 1  
    45   17   42 1  
    46   17   43 1  
    47   18   44 1  
    48   19   45 1  
    49   19   46 1  
    50   19   47 1  
    51   20   48 1  
    52   20   49 1  
    53   20   50 1  
    54   23   51 1  
    55   23   52 1  
    56   23   53 1  
@<TRIPOS>SUBSTRUCTURE
     1 STR         1

