### 
### Created by X-TOOL on Mon Sep 10 21:12:48 2018
### 

@<TRIPOS>MOLECULE
1h61_ligand
   52    55     1     0     0
SMALL
GAST_HUCK


@<TRIPOS>ATOM
      1 C1         20.6360   11.8580   21.1480 C.2       1 PDN        -0.0942
      2 C2         19.8830   10.8510   21.7620 C.2       1 PDN         0.0361
      3 C3         19.9560    9.4330   21.3450 C.2       1 PDN         0.2468
      4 C4         20.8590    9.1250   20.2320 C.2       1 PDN         0.0347
      5 C5         21.6370   10.0390   19.5700 C.2       1 PDN        -0.0760
      6 C6         22.6180    9.6090   18.3600 C.3       1 PDN        -0.0267
      7 C7         22.3850   10.5890   17.2900 C.3       1 PDN        -0.0389
      8 C8         22.3900   11.9700   17.5600 C.3       1 PDN        -0.0303
      9 C9         21.3410   12.3580   18.7210 C.3       1 PDN        -0.0023
     10 C10        21.6120   11.5620   19.9810 C.3       1 PDN        -0.0330
     11 C11        21.3300   13.9430   18.9380 C.2       1 PDN         0.0944
     12 C12        21.1010   14.6660   17.5930 C.3       1 PDN         0.0284
     13 C13        22.1010   14.3630   16.5440 C.3       1 PDN         0.0202
     14 C14        22.0800   12.8410   16.3140 C.3       1 PDN        -0.0265
     15 C15        22.9570   12.7100   15.0160 C.3       1 PDN        -0.0462
     16 C16        22.7770   13.8840   14.2620 C.3       1 PDN        -0.0183
     17 C17        21.7920   14.7760   15.0640 C.3       1 PDN         0.1151
     18 C18        23.4980   14.9490   17.0280 C.3       1 PDN        -0.0543
     19 C19        22.9490   11.9490   20.5810 C.3       1 PDN        -0.1020
     20 C20        21.8410   16.3270   14.9370 C.3       1 PDN         0.1546
     21 C21        20.8270   16.7680   14.7030 C.2       1 PDN         0.1306
     22 O1         19.3140    8.6000   21.8930 O.2       1 PDN        -0.2667
     23 O2         21.4680   14.5740   20.1450 O.2       1 PDN        -0.3928
     24 O3         20.3400   14.4000   14.8300 O.3       1 PDN        -0.3828
     25 O4         22.8720   16.6590   14.2070 O.3       1 PDN        -0.3697
     26 O5         20.9220   18.1250   15.1440 O.2       1 PDN        -0.3721
     27 H1         20.5329   12.8828   21.5016 H         1 PDN         0.0523
     28 H2         19.2165   11.1217   22.5796 H         1 PDN         0.1206
     29 H3         20.9163    8.0878   19.9052 H         1 PDN         0.1051
     30 H4         22.3740    8.5949   18.0107 H         1 PDN         0.0436
     31 H5         23.6676    9.6414   18.6875 H         1 PDN         0.0436
     32 H6         21.3983   10.3572   16.8627 H         1 PDN         0.0293
     33 H7         23.1629   10.4155   16.5318 H         1 PDN         0.0293
     34 H8         23.4002   12.2289   17.9099 H         1 PDN         0.0319
     35 H9         20.3370   12.0732   18.3734 H         1 PDN         0.0359
     36 H10        21.1199   15.7498   17.7801 H         1 PDN         0.0500
     37 H11        20.1098   14.3765   17.2139 H         1 PDN         0.0500
     38 H12        21.0545   12.5571   16.0351 H         1 PDN         0.0312
     39 H13        22.6344   11.8356   14.4317 H         1 PDN         0.0269
     40 H14        24.0167   12.5980   15.2888 H         1 PDN         0.0269
     41 H15        22.3534   13.6414   13.2762 H         1 PDN         0.0296
     42 H16        23.7382   14.4024   14.1306 H         1 PDN         0.0296
     43 H17        23.6841   14.6417   18.0677 H         1 PDN         0.0238
     44 H18        23.4753   16.0472   16.9688 H         1 PDN         0.0238
     45 H19        24.3008   14.5635   16.3824 H         1 PDN         0.0238
     46 H20        23.1257   11.3603   21.4933 H         1 PDN         0.0057
     47 H21        22.9423   13.0201   20.8314 H         1 PDN         0.0057
     48 H22        23.7494   11.7474   19.8539 H         1 PDN         0.0057
     49 H23        22.0747   16.7100   15.9413 H         1 PDN         0.0857
     50 H24        19.9720   16.2722   14.2457 H         1 PDN         0.1377
     51 H25        20.1343   14.4944   13.9073 H         1 PDN         0.2105
     52 H26        23.6442   16.2081   14.5279 H         1 PDN         0.2136
@<TRIPOS>BOND
     1    1    2 2  
     2    1   10 1  
     3    2    3 1  
     4    3    4 1  
     5    3   22 2  
     6    4    5 2  
     7    5    6 1  
     8    5   10 1  
     9    6    7 1  
    10    7    8 1  
    11    8    9 1  
    12    8   14 1  
    13    9   10 1  
    14    9   11 1  
    15   10   19 1  
    16   11   12 1  
    17   11   23 2  
    18   12   13 1  
    19   13   14 1  
    20   13   17 1  
    21   13   18 1  
    22   14   15 1  
    23   15   16 1  
    24   16   17 1  
    25   17   20 1  
    26   17   24 1  
    27   20   21 1  
    28   20   25 1  
    29   21   26 2  
    30    1   27 1  
    31    2   28 1  
    32    4   29 1  
    33    6   30 1  
    34    6   31 1  
    35    7   32 1  
    36    7   33 1  
    37    8   34 1  
    38    9   35 1  
    39   12   36 1  
    40   12   37 1  
    41   14   38 1  
    42   15   39 1  
    43   15   40 1  
    44   16   41 1  
    45   16   42 1  
    46   18   43 1  
    47   18   44 1  
    48   18   45 1  
    49   19   46 1  
    50   19   47 1  
    51   19   48 1  
    52   20   49 1  
    53   21   50 1  
    54   24   51 1  
    55   25   52 1  
@<TRIPOS>SUBSTRUCTURE
     1 PDN         1

