### 
### Created by X-TOOL on Mon Sep 10 21:12:48 2018
### 

@<TRIPOS>MOLECULE
1h62_ligand
   45    48     1     0     0
SMALL
GAST_HUCK


@<TRIPOS>ATOM
      1 C1         20.4160   11.6840   21.3750 C.2       1 ANB        -0.0964
      2 C10        21.4620   11.3680   20.3070 C.3       1 ANB        -0.0486
      3 C11        21.1220   13.6310   19.1580 C.3       1 ANB        -0.0638
      4 C12        20.8530   14.3810   17.8010 C.3       1 ANB        -0.0436
      5 C13        22.0170   14.1080   16.8370 C.3       1 ANB         0.0349
      6 C14        22.0480   12.6050   16.5620 C.3       1 ANB        -0.0268
      7 C15        23.0080   12.4420   15.3320 C.3       1 ANB        -0.0352
      8 C16        22.4890   13.6390   14.4970 C.3       1 ANB         0.0229
      9 C17        21.8480   14.7210   15.4410 C.2       1 ANB         0.1328
     10 C18        23.3880   14.6970   17.3790 C.3       1 ANB        -0.0545
     11 C19        22.8520   11.8150   20.9410 C.3       1 ANB        -0.1041
     12 C2         19.6430   10.7440   21.9520 C.2       1 ANB         0.0359
     13 C3         19.7660    9.3090   21.5690 C.2       1 ANB         0.2468
     14 C4         20.7410    8.9630   20.5510 C.2       1 ANB         0.0345
     15 C5         21.5560    9.8730   19.9330 C.2       1 ANB        -0.0782
     16 C6         22.5490    9.4620   18.8880 C.3       1 ANB        -0.0270
     17 C7         22.3380   10.3250   17.6190 C.3       1 ANB        -0.0411
     18 C8         22.3010   11.7680   17.8620 C.3       1 ANB        -0.0470
     19 C9         21.1840   12.1630   18.9690 C.3       1 ANB        -0.0773
     20 O1         19.0740    8.4260   22.0780 O.2       1 ANB        -0.2667
     21 O2         21.3690   15.7320   15.1630 O.2       1 ANB        -0.3322
     22 H1         20.2893   12.7203   21.6849 H         1 ANB         0.0521
     23 H2         20.3103   13.8659   19.8623 H         1 ANB         0.0253
     24 H3         22.0797   13.9778   19.5734 H         1 ANB         0.0253
     25 H4         20.7746   15.4623   17.9869 H         1 ANB         0.0254
     26 H5         19.9146   14.0161   17.3581 H         1 ANB         0.0254
     27 H6         21.0479   12.3024   16.2182 H         1 ANB         0.0294
     28 H7         22.8657   11.4809   14.8163 H         1 ANB         0.0291
     29 H8         24.0660   12.5555   15.6107 H         1 ANB         0.0291
     30 H9         21.7305   13.2833   13.7842 H         1 ANB         0.0487
     31 H10        23.3280   14.0887   13.9458 H         1 ANB         0.0487
     32 H11        23.2804   15.7783   17.5501 H         1 ANB         0.0219
     33 H12        24.1815   14.5202   16.6380 H         1 ANB         0.0219
     34 H13        23.6520   14.2007   18.3245 H         1 ANB         0.0219
     35 H14        23.0291   11.2528   21.8697 H         1 ANB         0.0056
     36 H15        22.8240   12.8918   21.1640 H         1 ANB         0.0056
     37 H16        23.6635   11.6093   20.2275 H         1 ANB         0.0056
     38 H17        18.9175   11.0368   22.7095 H         1 ANB         0.1206
     39 H18        20.8295    7.9169   20.2615 H         1 ANB         0.1051
     40 H19        22.4037    8.4004   18.6395 H         1 ANB         0.0435
     41 H20        23.5694    9.6128   19.2702 H         1 ANB         0.0435
     42 H21        21.3835   10.0302   17.1585 H         1 ANB         0.0292
     43 H22        23.1620   10.1158   16.9210 H         1 ANB         0.0292
     44 H23        23.2864   12.0552   18.2575 H         1 ANB         0.0293
     45 H24        20.2023   11.8415   18.5910 H         1 ANB         0.0131
@<TRIPOS>BOND
     1    2    1 1  
     2    1   12 2  
     3    2   11 1  
     4    2   15 1  
     5   19    2 1  
     6    3    4 1  
     7    3   19 1  
     8    4    5 1  
     9    5    6 1  
    10    5    9 1  
    11    5   10 1  
    12    6    7 1  
    13    6   18 1  
    14    7    8 1  
    15    8    9 1  
    16    9   21 2  
    17   12   13 1  
    18   13   14 1  
    19   13   20 2  
    20   14   15 2  
    21   15   16 1  
    22   16   17 1  
    23   17   18 1  
    24   18   19 1  
    25    1   22 1  
    26    3   23 1  
    27    3   24 1  
    28    4   25 1  
    29    4   26 1  
    30    6   27 1  
    31    7   28 1  
    32    7   29 1  
    33    8   30 1  
    34    8   31 1  
    35   10   32 1  
    36   10   33 1  
    37   10   34 1  
    38   11   35 1  
    39   11   36 1  
    40   11   37 1  
    41   12   38 1  
    42   14   39 1  
    43   16   40 1  
    44   16   41 1  
    45   17   42 1  
    46   17   43 1  
    47   18   44 1  
    48   19   45 1  
@<TRIPOS>SUBSTRUCTURE
     1 ANB         1

