### 
### Created by X-TOOL on Mon Sep 10 21:12:49 2018
### 

@<TRIPOS>MOLECULE
1h8l_ligand
   27    26     1     0     0
SMALL
GAST_HUCK


@<TRIPOS>ATOM
      1 C8          7.0100   32.2560   20.7660 C.3       1 GEM         0.0691
      2 S7          7.5360   33.2220   19.3330 S.3       1 GEM        -0.1372
      3 C6          9.3180   33.2250   19.5500 C.3       1 GEM         0.0288
      4 C5          9.9740   32.2230   18.6110 C.3       1 GEM         0.0716
      5 N3         10.1420   30.9160   19.2300 N.pl3     1 GEM        -0.2715
      6 C1         10.2990   29.7810   18.5560 C.cat     1 GEM         0.2883
      7 N4         10.2990   29.7750   17.2320 N.pl3     1 GEM        -0.2849
      8 N2         10.4840   28.6500   19.2140 N.pl3     1 GEM        -0.2849
      9 C9          5.5250   31.9020   20.6560 C.2       1 GEM         0.0494
     10 O14         4.9870   31.7710   19.5460 O.co2     1 GEM        -0.5677
     11 O15         4.8890   31.7880   21.7140 O.co2     1 GEM        -0.5677
     12 C10         7.2940   32.9380   22.1230 C.3       1 GEM         0.0237
     13 C11         6.3480   34.0760   22.4230 C.2       1 GEM         0.0375
     14 O12         6.8520   35.1110   22.8660 O.co2     1 GEM        -0.5689
     15 O13         5.1100   33.9240   22.3490 O.co2     1 GEM        -0.5689
     16 H1          7.5823   31.3168   20.7496 H         1 GEM         0.0597
     17 H2          9.5560   32.9555   20.5896 H         1 GEM         0.0412
     18 H3          9.7068   34.2310   19.3338 H         1 GEM         0.0412
     19 H4         10.9629   32.6062   18.3191 H         1 GEM         0.0697
     20 H5          9.3447   32.1124   17.7156 H         1 GEM         0.0697
     21 H6         10.1390   30.8675   20.2589 H         1 GEM         0.2642
     22 H7         10.4215   28.8891   16.7210 H         1 GEM         0.2615
     23 H8         10.1765   30.6562   16.7130 H         1 GEM         0.2615
     24 H9         10.4851   28.6477   20.2440 H         1 GEM         0.2615
     25 H10        10.6271   27.7708   18.6969 H         1 GEM         0.2615
     26 H11         8.3213   33.3311   22.1092 H         1 GEM         0.0459
     27 H12         7.2000   32.1853   22.9196 H         1 GEM         0.0459
@<TRIPOS>BOND
     1    1    2 1  
     2    1    9 1  
     3    1   12 1  
     4    2    3 1  
     5    3    4 1  
     6    4    5 1  
     7    5    6 ar 
     8    6    7 ar 
     9    6    8 ar 
    10    9   10 ar 
    11    9   11 ar 
    12   12   13 1  
    13   13   14 ar 
    14   13   15 ar 
    15    1   16 1  
    16    3   17 1  
    17    3   18 1  
    18    4   19 1  
    19    4   20 1  
    20    5   21 1  
    21    7   22 1  
    22    7   23 1  
    23    8   24 1  
    24    8   25 1  
    25   12   26 1  
    26   12   27 1  
@<TRIPOS>SUBSTRUCTURE
     1 GEM         1

