### 
### Created by X-TOOL on Mon Sep 10 21:12:48 2018
### 

@<TRIPOS>MOLECULE
1h8s_ligand
   43    45     1     0     0
SMALL
GAST_HUCK


@<TRIPOS>ATOM
      1 C8         22.0380   39.3580   10.4860 C.ar      1 AIC        -0.0679
      2 C5         21.4780   38.6520   12.7700 C.ar      1 AIC         0.0236
      3 C6         15.4860   36.1150   10.4730 C.3       1 AIC         0.0482
      4 N1         18.8390   36.6500   12.7590 N.am      1 AIC        -0.2564
      5 C2         14.7200   33.7270   10.8250 C.2       1 AIC         0.0617
      6 N3         16.9520   34.4130   11.6170 N.am      1 AIC        -0.2370
      7 C4         20.5060   38.2190   13.7650 C.3       1 AIC         0.0983
      8 C1         13.9960   36.4000   10.1720 C.3       1 AIC        -0.0469
      9 C3         20.0350   36.8540   13.5140 C.2       1 AIC         0.2386
     10 C7         21.0810   38.9440   11.4370 C.ar      1 AIC        -0.0525
     11 C9         23.3850   39.5030   10.8710 C.ar      1 AIC        -0.0684
     12 C10        23.7690   39.2510   12.2090 C.ar      1 AIC        -0.0679
     13 C11        22.8270   38.7900   13.1460 C.ar      1 AIC        -0.0525
     14 C12        15.8760   34.6060   10.5490 C.3       1 AIC         0.1126
     15 C13        16.8220   35.3550   12.7360 C.3       1 AIC         0.1336
     16 C14        18.3260   35.3360   12.8020 C.3       1 AIC         0.1639
     17 C15        18.3210   34.7670   11.4940 C.2       1 AIC         0.2102
     18 C16        16.3510   36.8010    9.4180 C.3       1 AIC        -0.0469
     19 N2         19.4300   39.1090   13.7820 N.4       1 AIC         0.2496
     20 O1         14.5590   33.2500   11.9750 O.co2     1 AIC        -0.5666
     21 O2         13.8850   33.4570    9.9080 O.co2     1 AIC        -0.5666
     22 O3         20.7130   35.8860   13.9490 O.2       1 AIC        -0.3877
     23 O4         19.1640   34.6650   10.5840 O.2       1 AIC        -0.3941
     24 S1         15.8480   36.7080   12.0890 S.3       1 AIC        -0.1180
     25 H1         21.7380   39.5633    9.4648 H         1 AIC         0.0600
     26 H2         18.3990   37.3826   12.2397 H         1 AIC         0.1887
     27 H3         20.9914   38.2368   14.7519 H         1 AIC         0.1260
     28 H4         13.7495   36.0358    9.1638 H         1 AIC         0.0245
     29 H5         13.8117   37.4831   10.2258 H         1 AIC         0.0245
     30 H6         13.3671   35.8838   10.9123 H         1 AIC         0.0245
     31 H7         20.0401   38.8484   11.1499 H         1 AIC         0.0563
     32 H8         24.1273   39.8076   10.1422 H         1 AIC         0.0561
     33 H9         24.7963   39.4143   12.5141 H         1 AIC         0.0600
     34 H10        23.1389   38.5419   14.1541 H         1 AIC         0.0563
     35 H11        16.2951   34.3146    9.5746 H         1 AIC         0.0742
     36 H12        16.3555   34.9802   13.6590 H         1 AIC         0.0726
     37 H13        18.7796   34.7351   13.6039 H         1 AIC         0.0833
     38 H14        16.0977   36.4063    8.4230 H         1 AIC         0.0245
     39 H15        17.4124   36.6058    9.6306 H         1 AIC         0.0245
     40 H16        16.1659   37.8851    9.4404 H         1 AIC         0.0245
     41 H17        19.7688   40.0424   13.9554 H         1 AIC         0.2029
     42 H18        18.7864   38.8443   14.5112 H         1 AIC         0.2029
     43 H19        18.9582   39.0828   12.8916 H         1 AIC         0.2029
@<TRIPOS>BOND
     1   10    1 ar 
     2    1   11 ar 
     3    7    2 1  
     4    2   10 ar 
     5    2   13 ar 
     6    9    7 1  
     7    7   19 1  
     8    9   22 2  
     9   12   11 ar 
    10   13   12 ar 
    11   16   15 1  
    12   16   17 1  
    13   15   24 1  
    14   24    3 1  
    15   17   23 2  
    16    5   21 ar 
    17    5   20 ar 
    18    3   18 1  
    19   17    6 am 
    20    4   16 1  
    21   15    6 1  
    22    6   14 1  
    23   14    5 1  
    24   14    3 1  
    25    9    4 am 
    26    3    8 1  
    27    1   25 1  
    28    4   26 1  
    29    7   27 1  
    30    8   28 1  
    31    8   29 1  
    32    8   30 1  
    33   10   31 1  
    34   11   32 1  
    35   12   33 1  
    36   13   34 1  
    37   14   35 1  
    38   15   36 1  
    39   16   37 1  
    40   18   38 1  
    41   18   39 1  
    42   18   40 1  
    43   19   41 1  
    44   19   42 1  
    45   19   43 1  
@<TRIPOS>SUBSTRUCTURE
     1 AIC         1

