### 
### Created by X-TOOL on Mon Sep 10 21:12:48 2018
### 

@<TRIPOS>MOLECULE
1h8y_ligand
   53    54     1     0     0
SMALL
GAST_HUCK


@<TRIPOS>ATOM
      1 C7         28.7060   93.2980   53.4930 C.2       1 MER         0.1058
      2 C2         32.7090   91.6290   55.3000 C.3       1 MER         0.0784
      3 C6         29.1420   91.9070   54.0820 C.3       1 MER         0.0691
      4 C5         30.4480   92.2160   54.9300 C.3       1 MER         0.0426
      5 C3         32.6210   92.7510   54.5390 C.2       1 MER         0.0849
      6 O7         29.1870   93.6300   52.4070 O.2       1 MER        -0.3745
      7 C61        27.9080   91.6250   55.0420 C.3       1 MER         0.0717
      8 O62        28.2300   90.9800   56.1840 O.3       1 MER        -0.3893
      9 C62        26.6500   91.2640   54.3030 C.3       1 MER        -0.0364
     10 N4         31.3550   93.1690   54.4520 N.2       1 MER        -0.3226
     11 C31        33.7210   93.4460   53.9490 C.2       1 MER         0.1086
     12 O31        33.7550   93.5540   52.7030 O.co2     1 MER        -0.5470
     13 O32        34.8790   93.7130   54.6530 O.co2     1 MER        -0.5470
     14 S21        34.0400   90.4070   54.9360 S.3       1 MER        -0.1240
     15 C1A        35.6920   91.1430   55.2400 C.3       1 MER         0.0558
     16 C4A        35.7440   92.0400   56.4920 C.3       1 MER         0.0249
     17 C5A        35.3590   91.0110   57.6260 C.3       1 MER         0.0680
     18 C1         31.3000   91.0710   55.4210 C.3       1 MER         0.0009
     19 N3A        35.6290   89.7210   56.9900 N.4       1 MER         0.2469
     20 C11        31.3630   89.9300   54.3310 C.3       1 MER        -0.0574
     21 C2A        36.5250   89.9290   55.8300 C.3       1 MER        -0.0189
     22 C6A        36.2410   91.2820   58.9050 C.2       1 MER         0.2265
     23 N7A        36.7470   92.6250   59.1490 N.am      1 MER        -0.2747
     24 O6A        37.0770   90.3760   59.1300 O.2       1 MER        -0.3907
     25 C8A        38.0680   93.0240   58.7190 C.3       1 MER         0.0224
     26 C9A        36.1810   93.3040   60.2790 C.3       1 MER         0.0224
     27 H1         28.0068   93.9430   54.0231 H         1 MER         0.1353
     28 H2         32.9691   91.9892   56.3063 H         1 MER         0.0691
     29 H3         29.3037   91.1191   53.3317 H         1 MER         0.0566
     30 H4         30.0286   92.6623   55.8437 H         1 MER         0.0455
     31 H5         27.6616   92.6279   55.4206 H         1 MER         0.0620
     32 H6         27.4458   90.8476   56.7035 H         1 MER         0.2100
     33 H7         25.8399   91.0828   55.0248 H         1 MER         0.0256
     34 H8         26.8219   90.3544   53.7089 H         1 MER         0.0256
     35 H9         26.3673   92.0906   53.6346 H         1 MER         0.0256
     36 H10        36.1105   91.6191   54.3410 H         1 MER         0.0471
     37 H11        35.0152   92.8615   56.4294 H         1 MER         0.0358
     38 H12        36.7508   92.4542   56.6491 H         1 MER         0.0358
     39 H13        34.2960   91.0921   57.8968 H         1 MER         0.1099
     40 H14        31.0160   90.7147   56.4222 H         1 MER         0.0355
     41 H15        34.7627   89.3110   56.6777 H         1 MER         0.2035
     42 H16        36.0728   89.1046   57.6526 H         1 MER         0.2035
     43 H17        31.9864   89.1029   54.7016 H         1 MER         0.0235
     44 H18        31.7996   90.3315   53.4046 H         1 MER         0.0235
     45 H19        30.3470   89.5607   54.1276 H         1 MER         0.0235
     46 H20        37.5479   90.2099   56.1211 H         1 MER         0.0825
     47 H21        36.5612   89.0625   55.1533 H         1 MER         0.0825
     48 H22        38.2450   94.0719   59.0029 H         1 MER         0.0486
     49 H23        38.1443   92.9222   57.6264 H         1 MER         0.0486
     50 H24        38.8200   92.3817   59.2005 H         1 MER         0.0486
     51 H25        35.1807   92.8970   60.4880 H         1 MER         0.0486
     52 H26        36.1009   94.3787   60.0587 H         1 MER         0.0486
     53 H27        36.8274   93.1568   61.1568 H         1 MER         0.0486
@<TRIPOS>BOND
     1    3    1 1  
     2    1    6 2  
     3    2    5 1  
     4    2   14 1  
     5   18    2 1  
     6    4    3 1  
     7    3    7 1  
     8    4   10 1  
     9    4   18 1  
    10    5   10 2  
    11    5   11 1  
    12    7    8 1  
    13    7    9 1  
    14   11   12 ar 
    15   11   13 ar 
    16   14   15 1  
    17   15   16 1  
    18   15   21 1  
    19   16   17 1  
    20   17   19 1  
    21   17   22 1  
    22   18   20 1  
    23   19   21 1  
    24   22   23 am 
    25   22   24 2  
    26   23   25 1  
    27   23   26 1  
    28    1   27 1  
    29    2   28 1  
    30    3   29 1  
    31    4   30 1  
    32    7   31 1  
    33    8   32 1  
    34    9   33 1  
    35    9   34 1  
    36    9   35 1  
    37   15   36 1  
    38   16   37 1  
    39   16   38 1  
    40   17   39 1  
    41   18   40 1  
    42   19   41 1  
    43   19   42 1  
    44   20   43 1  
    45   20   44 1  
    46   20   45 1  
    47   21   46 1  
    48   21   47 1  
    49   25   48 1  
    50   25   49 1  
    51   25   50 1  
    52   26   51 1  
    53   26   52 1  
    54   26   53 1  
@<TRIPOS>SUBSTRUCTURE
     1 MER         1

