### 
### Created by X-TOOL on Mon Sep 10 21:12:48 2018
### 

@<TRIPOS>MOLECULE
1h9l_ligand
   67    67     1     0     0
SMALL
GAST_HUCK


@<TRIPOS>ATOM
      1 N         -18.1450   17.2080   39.9100 N.4       1 VAL         0.2381
      2 CA        -16.8940   17.9720   40.2010 C.3       1 VAL         0.0673
      3 C         -15.9740   18.0850   38.9800 C.2       1 VAL         0.2270
      4 O         -15.5660   17.0770   38.3840 O.2       1 VAL        -0.3907
      5 CB        -16.1710   17.3430   41.4090 C.3       1 VAL         0.0139
      6 CG1       -16.5310   15.8550   41.5420 C.3       1 VAL        -0.0553
      7 CG2       -14.6750   17.5680   41.3400 C.3       1 VAL        -0.0553
      8 N         -15.5870   19.3140   38.6350 N.am      1 GLU        -0.2609
      9 CA        -14.6860   19.5360   37.4760 C.3       1 GLU         0.1328
     10 C         -13.2570   20.1560   37.7230 C.2       1 GLU         0.2065
     11 O         -13.1150   21.3740   37.9040 O.2       1 GLU        -0.3942
     12 CB        -15.3990   20.3200   36.3740 C.3       1 GLU        -0.0008
     13 CG        -14.4990   20.7110   35.2090 C.3       1 GLU         0.0044
     14 CD        -14.7440   19.9170   33.9140 C.2       1 GLU         0.0350
     15 OE1       -15.5440   18.9750   33.9040 O.co2     1 GLU        -0.5690
     16 OE2       -14.1300   20.2580   32.8760 O.co2     1 GLU        -0.5690
     17 N         -12.1940   19.3450   37.7020 N.am      1 PRO        -0.2498
     18 CA        -10.8220   19.8720   37.8990 C.3       1 PRO         0.1338
     19 C         -10.5120   21.0310   36.9790 C.2       1 PRO         0.2042
     20 O         -10.5100   20.8810   35.7480 O.2       1 PRO        -0.3944
     21 CB         -9.9220   18.6880   37.5430 C.3       1 PRO        -0.0104
     22 CG        -10.7660   17.5060   37.8500 C.3       1 PRO        -0.0281
     23 CD        -12.1840   17.8880   37.4880 C.3       1 PRO         0.0369
     24 N         -10.2280   22.1890   37.5620 N.am      1 ILE        -0.2647
     25 CA         -9.9110   23.3100   36.7180 C.3       1 ILE         0.1153
     26 C          -8.5890   23.9230   36.9780 C.2       1 ILE         0.1247
     27 O          -8.5840   25.0770   36.6040 O.2       1 ILE        -0.3724
     28 CB        -10.8380   24.4810   36.8810 C.3       1 ILE        -0.0050
     29 CG1       -10.9380   24.9450   38.3340 C.3       1 ILE        -0.0490
     30 CG2       -12.2030   24.2120   36.2790 C.3       1 ILE        -0.0581
     31 CD1       -10.5470   26.4140   38.4910 C.3       1 ILE        -0.0648
     32 H1        -18.6152   17.6215   39.1201 H         1 VAL         0.2015
     33 H2        -18.7513   17.2370   40.7147 H         1 VAL         0.2015
     34 H3        -17.9124   16.2502   39.6988 H         1 VAL         0.2015
     35 H4        -17.1871   18.9944   40.4816 H         1 VAL         0.1101
     36 H5        -16.5349   17.8511   42.3142 H         1 VAL         0.0376
     37 H6        -16.0055   15.4267   42.4082 H         1 VAL         0.0236
     38 H7        -16.2283   15.3214   40.6290 H         1 VAL         0.0236
     39 H8        -17.6169   15.7517   41.6841 H         1 VAL         0.0236
     40 H9        -14.4701   18.6446   41.2457 H         1 VAL         0.0236
     41 H10       -14.2645   17.0388   40.4674 H         1 VAL         0.0236
     42 H11       -14.2038   17.1841   42.2568 H         1 VAL         0.0236
     43 H12       -15.9088   20.0983   39.1654 H         1 GLU         0.1885
     44 H13       -14.4944   18.5303   37.0736 H         1 GLU         0.0801
     45 H14       -15.8119   21.2390   36.8154 H         1 GLU         0.0330
     46 H15       -16.2195   19.6998   35.9839 H         1 GLU         0.0330
     47 H16       -13.4542   20.5537   35.5151 H         1 GLU         0.0433
     48 H17       -14.6613   21.7773   34.9932 H         1 GLU         0.0433
     49 H18       -10.6744   20.1836   38.9436 H         1 PRO         0.0802
     50 H19        -9.0093   18.6894   38.1570 H         1 PRO         0.0313
     51 H20        -9.6476   18.7091   36.4780 H         1 PRO         0.0313
     52 H21       -10.7000   17.2589   38.9198 H         1 PRO         0.0287
     53 H22       -10.4409   16.6411   37.2532 H         1 PRO         0.0287
     54 H23       -12.4058   17.6400   36.4395 H         1 PRO         0.0524
     55 H24       -12.9095   17.3860   38.1449 H         1 PRO         0.0524
     56 H25       -10.2342   22.2795   38.5579 H         1 ILE         0.1884
     57 H26        -9.9498   22.9529   35.6783 H         1 ILE         0.0793
     58 H27        -7.7441   23.4125   37.4379 H         1 ILE         0.1373
     59 H28       -10.3984   25.3137   36.3124 H         1 ILE         0.0346
     60 H29       -10.2660   24.3302   38.9508 H         1 ILE         0.0267
     61 H30       -11.9743   24.8140   38.6787 H         1 ILE         0.0267
     62 H31       -12.0853   23.8816   35.2364 H         1 ILE         0.0235
     63 H32       -12.8037   25.1331   36.3061 H         1 ILE         0.0235
     64 H33       -12.7105   23.4261   36.8576 H         1 ILE         0.0235
     65 H34       -10.6329   26.7053   39.5482 H         1 ILE         0.0230
     66 H35       -11.2175   27.0389   37.8829 H         1 ILE         0.0230
     67 H36        -9.5091   26.5552   38.1550 H         1 ILE         0.0230
@<TRIPOS>BOND
     1    1    2 1  
     2    2    3 1  
     3    2    5 1  
     4    3    4 2  
     5    3    8 am 
     6    5    6 1  
     7    5    7 1  
     8    8    9 1  
     9    9   10 1  
    10    9   12 1  
    11   10   11 2  
    12   10   17 am 
    13   12   13 1  
    14   13   14 1  
    15   14   15 ar 
    16   14   16 ar 
    17   17   18 1  
    18   17   23 1  
    19   18   19 1  
    20   18   21 1  
    21   19   20 2  
    22   19   24 am 
    23   21   22 1  
    24   22   23 1  
    25   24   25 1  
    26   25   26 1  
    27   25   28 1  
    28   26   27 2  
    29   28   29 1  
    30   28   30 1  
    31   29   31 1  
    32    1   32 1  
    33    1   33 1  
    34    1   34 1  
    35    2   35 1  
    36    5   36 1  
    37    6   37 1  
    38    6   38 1  
    39    6   39 1  
    40    7   40 1  
    41    7   41 1  
    42    7   42 1  
    43    8   43 1  
    44    9   44 1  
    45   12   45 1  
    46   12   46 1  
    47   13   47 1  
    48   13   48 1  
    49   18   49 1  
    50   21   50 1  
    51   21   51 1  
    52   22   52 1  
    53   22   53 1  
    54   23   54 1  
    55   23   55 1  
    56   24   56 1  
    57   25   57 1  
    58   26   58 1  
    59   28   59 1  
    60   29   60 1  
    61   29   61 1  
    62   30   62 1  
    63   30   63 1  
    64   30   64 1  
    65   31   65 1  
    66   31   66 1  
    67   31   67 1  
@<TRIPOS>SUBSTRUCTURE
     1 VAL         1

