### 
### Created by X-TOOL on Mon Sep 10 21:12:48 2018
### 

@<TRIPOS>MOLECULE
1h9z_ligand
   39    41     1     0     0
SMALL
GAST_HUCK


@<TRIPOS>ATOM
      1 C1         34.8210   14.6190    9.6270 C.ar      1 RWF         0.0518
      2 C2         30.8510   14.2270    9.5720 C.3       1 RWF         0.0390
      3 C3         30.5470   14.0430   11.0820 C.3       1 RWF         0.0388
      4 C4         29.0770   14.0520   11.4070 C.2       1 RWF         0.1055
      5 C5         28.5420   13.2490   12.5600 C.3       1 RWF         0.0097
      6 C6         30.5360   12.9520    8.7410 C.ar      1 RWF        -0.0312
      7 C7         30.0190   13.0550    7.4230 C.ar      1 RWF        -0.0587
      8 C8         29.7310   11.8960    6.6510 C.ar      1 RWF        -0.0685
      9 C9         29.9510   10.6210    7.1770 C.ar      1 RWF        -0.0688
     10 C10        30.4510   10.4960    8.4530 C.ar      1 RWF        -0.0685
     11 C11        32.4790   15.9140    8.5600 C.2       1 RWF         0.2575
     12 C12        30.7460   11.6410    9.2420 C.ar      1 RWF        -0.0587
     13 C13        32.3060   14.7100    9.3690 C.2       1 RWF         0.0739
     14 C14        33.4480   14.0920    9.8910 C.2       1 RWF         0.1100
     15 C15        36.0370   14.0390   10.1110 C.ar      1 RWF        -0.0559
     16 C16        37.2800   14.6180    9.7850 C.ar      1 RWF        -0.0699
     17 C17        37.3390   15.7790    8.9730 C.ar      1 RWF        -0.0679
     18 C18        36.1650   16.3700    8.4900 C.ar      1 RWF        -0.0243
     19 C19        34.9180   15.7850    8.8180 C.ar      1 RWF         0.1390
     20 O1         33.7730   16.4000    8.3140 O.3       1 RWF        -0.2152
     21 O2         31.5700   16.5570    8.0530 O.2       1 RWF        -0.3852
     22 O3         28.2330   14.8170   10.5850 O.2       1 RWF        -0.3916
     23 O4         33.4490   12.9750   10.6620 O.3       1 RWF        -0.3319
     24 H1         30.1877   15.0222    9.2009 H         1 RWF         0.0591
     25 H2         31.0305   14.8610   11.6362 H         1 RWF         0.0536
     26 H3         30.9689   13.0805   11.4068 H         1 RWF         0.0536
     27 H4         27.4532   13.3886   12.6301 H         1 RWF         0.0459
     28 H5         29.0158   13.5870   13.4934 H         1 RWF         0.0459
     29 H6         28.7655   12.1839   12.4001 H         1 RWF         0.0459
     30 H7         29.8404   14.0356    6.9970 H         1 RWF         0.0558
     31 H8         29.3377   12.0029    5.6465 H         1 RWF         0.0599
     32 H9         29.7302    9.7392    6.5864 H         1 RWF         0.0559
     33 H10        30.6228    9.5075    8.8634 H         1 RWF         0.0599
     34 H11        31.1383   11.5104   10.2441 H         1 RWF         0.0558
     35 H12        36.0016   13.1505   10.7310 H         1 RWF         0.0603
     36 H13        38.1959   14.1733   10.1571 H         1 RWF         0.0539
     37 H14        38.3008   16.2126    8.7241 H         1 RWF         0.0599
     38 H15        36.2102   17.2613    7.8747 H         1 RWF         0.0558
     39 H16        32.9490   13.1373   11.4533 H         1 RWF         0.2498
@<TRIPOS>BOND
     1    1   14 1  
     2    1   15 ar 
     3   19    1 ar 
     4    2    3 1  
     5    2    6 1  
     6   13    2 1  
     7    3    4 1  
     8    4    5 1  
     9    6    7 ar 
    10    6   12 ar 
    11    7    8 ar 
    12    8    9 ar 
    13   10    9 ar 
    14   12   10 ar 
    15   14   13 2  
    16   14   23 1  
    17   15   16 ar 
    18   17   16 ar 
    19   18   17 ar 
    20   19   18 ar 
    21   20   19 1  
    22    4   22 2  
    23   11   21 2  
    24   20   11 1  
    25   13   11 1  
    26    2   24 1  
    27    3   25 1  
    28    3   26 1  
    29    5   27 1  
    30    5   28 1  
    31    5   29 1  
    32    7   30 1  
    33    8   31 1  
    34    9   32 1  
    35   10   33 1  
    36   12   34 1  
    37   15   35 1  
    38   16   36 1  
    39   17   37 1  
    40   18   38 1  
    41   23   39 1  
@<TRIPOS>SUBSTRUCTURE
     1 RWF         1

