### 
### Created by X-TOOL on Mon Sep 10 21:12:48 2018
### 

@<TRIPOS>MOLECULE
1hbj_ligand
   46    48     1     0     0
SMALL
GAST_HUCK


@<TRIPOS>ATOM
      1 N1          4.9330   69.4100   63.4170 N.ar      1 FBQ        -0.3303
      2 C2          5.3280   69.9580   64.5840 C.ar      1 FBQ         0.0161
      3 C3          4.4250   69.9980   65.6890 C.ar      1 FBQ         0.0551
      4 C4          3.1350   69.4570   65.5320 C.ar      1 FBQ         0.0686
      5 C5          2.7320   68.8660   64.2810 C.ar      1 FBQ         0.0139
      6 C6          3.6800   68.8600   63.2060 C.ar      1 FBQ         0.0071
      7 C7          4.8920   70.6090   66.9360 C.ar      1 FBQ         0.1440
      8 C8          6.2060   71.1250   67.0490 C.ar      1 FBQ        -0.0300
      9 C9          7.0570   71.0510   65.9350 C.ar      1 FBQ        -0.0673
     10 C10         6.6170   70.4760   64.6880 C.ar      1 FBQ        -0.0573
     11 N11         2.2140   69.4590   66.5740 N.pl3     1 FBQ        -0.3283
     12 C12         1.3290   68.2540   64.1250 C.3       1 FBQ         0.0271
     13 S13         1.4470   66.4840   64.7830 S.3       1 FBQ        -0.1371
     14 C14         3.0710   66.1070   65.5030 C.3       1 FBQ         0.0274
     15 C15         4.2210   65.8750   64.5460 C.ar      1 FBQ        -0.0398
     16 C16         4.1200   65.0720   63.4070 C.ar      1 FBQ        -0.0557
     17 C17         5.2690   64.8680   62.5830 C.ar      1 FBQ        -0.0129
     18 C18         6.5410   65.5250   62.8850 C.ar      1 FBQ        -0.0645
     19 C19         6.6540   66.3460   64.0270 C.ar      1 FBQ        -0.0751
     20 C20         5.4830   66.5150   64.8720 C.ar      1 FBQ        -0.0665
     21 C21         5.2570   63.9710   61.4060 C.3       1 FBQ         0.1825
     22 C22         5.5250   62.5370   61.9300 C.3       1 FBQ         0.4256
     23 F23         5.4350   61.5320   60.9750 F         1 FBQ        -0.1660
     24 F24         4.5530   62.2900   62.9300 F         1 FBQ        -0.1660
     25 F25         6.7420   62.5010   62.6650 F         1 FBQ        -0.1660
     26 O26         4.0880   64.0870   60.5330 O.3       1 FBQ        -0.3706
     27 F27         4.0820   70.7130   68.0410 F         1 FBQ        -0.1791
     28 C28         3.3620   68.2520   61.8250 C.3       1 FBQ        -0.0204
     29 H1          6.5479   71.5683   67.9773 H         1 FBQ         0.0557
     30 H2          8.0677   71.4348   66.0140 H         1 FBQ         0.0609
     31 H3          7.2860   70.4470   63.8356 H         1 FBQ         0.0544
     32 H4          2.4658   69.8725   67.4831 H         1 FBQ         0.1779
     33 H5          1.2800   69.0470   66.4366 H         1 FBQ         0.1779
     34 H6          1.0316   68.2478   63.0660 H         1 FBQ         0.0497
     35 H7          0.5952   68.8293   64.7086 H         1 FBQ         0.0497
     36 H8          2.9591   65.1971   66.1109 H         1 FBQ         0.0538
     37 H9          3.3476   66.9504   66.1527 H         1 FBQ         0.0538
     38 H10         3.1753   64.6066   63.1501 H         1 FBQ         0.0495
     39 H11         7.3948   65.3813   62.2327 H         1 FBQ         0.0500
     40 H12         7.5894   66.8379   64.2680 H         1 FBQ         0.0582
     41 H13         5.5533   67.1301   65.7618 H         1 FBQ         0.0500
     42 H14         6.1173   64.2532   60.7813 H         1 FBQ         0.0848
     43 H15         4.2061   63.5308   59.7720 H         1 FBQ         0.2134
     44 H16         2.3337   67.8615   61.8243 H         1 FBQ         0.0417
     45 H17         4.0653   67.4330   61.6142 H         1 FBQ         0.0417
     46 H18         3.4601   69.0278   61.0514 H         1 FBQ         0.0417
@<TRIPOS>BOND
     1    1    2 ar 
     2    1    6 ar 
     3    2    3 ar 
     4    2   10 ar 
     5    3    4 ar 
     6    3    7 ar 
     7    4    5 ar 
     8    4   11 1  
     9    5    6 ar 
    10    5   12 1  
    11    6   28 1  
    12    7    8 ar 
    13    7   27 1  
    14    8    9 ar 
    15    9   10 ar 
    16   12   13 1  
    17   13   14 1  
    18   14   15 1  
    19   15   16 ar 
    20   15   20 ar 
    21   16   17 ar 
    22   17   18 ar 
    23   17   21 1  
    24   18   19 ar 
    25   19   20 ar 
    26   21   22 1  
    27   21   26 1  
    28   22   23 1  
    29   22   24 1  
    30   22   25 1  
    31    8   29 1  
    32    9   30 1  
    33   10   31 1  
    34   11   32 1  
    35   11   33 1  
    36   12   34 1  
    37   12   35 1  
    38   14   36 1  
    39   14   37 1  
    40   16   38 1  
    41   18   39 1  
    42   19   40 1  
    43   20   41 1  
    44   21   42 1  
    45   26   43 1  
    46   28   44 1  
    47   28   45 1  
    48   28   46 1  
@<TRIPOS>SUBSTRUCTURE
     1 FBQ         1

