### 
### Created by X-TOOL on Mon Sep 10 21:12:45 2018
### 

@<TRIPOS>MOLECULE
1hbv_ligand
   95    96     1     0     0
SMALL
GAST_HUCK


@<TRIPOS>ATOM
      1 N1         -4.4280   16.7710   18.8980 N.4       1 GAN         0.2377
      2 C2         -4.3680   17.2180   20.3280 C.3       1 GAN         0.0622
      3 C3         -3.3620   18.3720   20.4750 C.3       1 GAN        -0.0040
      4 C4         -5.7600   17.7000   20.7290 C.2       1 GAN         0.2262
      5 O5         -6.2830   18.5900   20.0580 O.2       1 GAN        -0.3907
      6 N6         -6.3570   17.1560   21.7790 N.am      1 GAN        -0.2697
      7 C7         -7.6830   17.5640   22.2180 C.3       1 GAN         0.0642
      8 C8         -8.7050   16.7170   21.4720 C.3       1 GAN        -0.0333
      9 C9         -7.6940   17.3450   23.7270 C.2       1 GAN        -0.0508
     10 C10        -7.0530   18.2710   24.5480 C.2       1 GAN        -0.0964
     11 C11        -7.0060   18.1300   26.0900 C.3       1 GAN         0.0151
     12 C12        -5.8960   19.0210   26.6480 C.3       1 GAN        -0.0083
     13 C13        -4.6210   18.4400   26.0610 C.ar      1 GAN        -0.0414
     14 C14        -3.8370   19.2340   25.2190 C.ar      1 GAN        -0.0602
     15 C15        -2.7210   18.6870   24.5850 C.ar      1 GAN        -0.0686
     16 C16        -2.3980   17.3520   24.7890 C.ar      1 GAN        -0.0687
     17 C17        -3.1800   16.5660   25.6330 C.ar      1 GAN        -0.0686
     18 C18        -4.2900   17.0960   26.2770 C.ar      1 GAN        -0.0602
     19 C19        -8.3400   18.4400   26.7670 C.3       1 GAN        -0.0220
     20 C20        -8.3080   16.0710   24.2740 C.3       1 GAN         0.0143
     21 C21        -8.8420   16.1310   25.7390 C.3       1 GAN        -0.0214
     22 N22        -9.3220   17.4680   26.2090 N.4       1 GAN         0.2565
     23 C23       -10.7340   17.5520   26.6530 C.3       1 GAN         0.0660
     24 C24       -11.5120   16.7700   25.5720 C.3       1 GAN        -0.0038
     25 C25       -11.1870   17.1440   28.0890 C.2       1 GAN         0.2266
     26 O26       -10.8830   17.8630   29.0480 O.2       1 GAN        -0.3907
     27 N27       -11.9160   16.0210   28.2460 N.am      1 GAN        -0.2608
     28 C28       -12.4280   15.5100   29.5150 C.3       1 GAN         0.1334
     29 C29       -13.4480   14.3020   29.2470 C.3       1 GAN        -0.0063
     30 C30       -14.2960   14.1470   30.4660 C.3       1 GAN        -0.0584
     31 C31       -12.7940   12.9710   28.9620 C.3       1 GAN        -0.0584
     32 C32       -11.2970   15.0750   30.4500 C.2       1 GAN         0.2042
     33 O33       -10.3540   14.3820   30.0320 O.2       1 GAN        -0.3944
     34 N34       -11.4050   15.4490   31.7110 N.am      1 GAN        -0.2621
     35 C35       -10.4580   15.0950   32.7660 C.3       1 GAN         0.1445
     36 C37        -9.2350   16.0340   33.0340 C.3       1 GAN        -0.0049
     37 C38        -8.8090   16.9480   31.9160 C.3       1 GAN        -0.0583
     38 C39        -8.0810   15.0700   33.1780 C.3       1 GAN        -0.0583
     39 C40       -11.3900   15.2500   33.9910 C.2       1 GAN         0.2596
     40 O36       -12.0240   16.3120   34.1420 O.2       1 GAN        -0.3678
     41 O41       -11.8900   14.1670   34.6250 O.3       1 GAN        -0.2784
     42 C42       -12.4540   13.1010   33.7960 C.3       1 GAN         0.0658
     43 H1         -3.5183   16.4472   18.6088 H         1 GAN         0.2015
     44 H2         -4.7102   17.5440   18.3159 H         1 GAN         0.2015
     45 H3         -5.0957   16.0213   18.8080 H         1 GAN         0.2015
     46 H4         -4.0620   16.3786   20.9697 H         1 GAN         0.1095
     47 H5         -3.3241   18.6937   21.5262 H         1 GAN         0.0310
     48 H6         -3.6776   19.2162   19.8444 H         1 GAN         0.0310
     49 H7         -2.3647   18.0315   20.1596 H         1 GAN         0.0310
     50 H8         -5.8796   16.4397   22.2879 H         1 GAN         0.1882
     51 H9         -7.8607   18.6265   21.9954 H         1 GAN         0.0700
     52 H10        -9.7191   17.0054   21.7856 H         1 GAN         0.0273
     53 H11        -8.5384   15.6543   21.7019 H         1 GAN         0.0273
     54 H12        -8.5959   16.8795   20.3896 H         1 GAN         0.0273
     55 H13        -6.5653   19.1285   24.0868 H         1 GAN         0.0249
     56 H14        -6.7552   17.0843   26.3216 H         1 GAN         0.0449
     57 H15        -5.8752   18.9763   27.7469 H         1 GAN         0.0445
     58 H16        -6.0338   20.0637   26.3260 H         1 GAN         0.0445
     59 H17        -4.0960   20.2743   25.0587 H         1 GAN         0.0557
     60 H18        -2.1084   19.3019   23.9356 H         1 GAN         0.0599
     61 H19        -1.5369   16.9210   24.2913 H         1 GAN         0.0559
     62 H20        -2.9180   15.5258   25.7890 H         1 GAN         0.0599
     63 H21        -4.8907   16.4799   26.9362 H         1 GAN         0.0557
     64 H22        -8.6523   19.4703   26.5414 H         1 GAN         0.0835
     65 H23        -8.2540   18.3131   27.8562 H         1 GAN         0.0835
     66 H24        -7.5408   15.2839   24.2296 H         1 GAN         0.0463
     67 H25        -9.1508   15.7988   23.6216 H         1 GAN         0.0463
     68 H26        -8.0283   15.8120   26.4069 H         1 GAN         0.0838
     69 H27        -9.6814   15.4247   25.8203 H         1 GAN         0.0838
     70 H28        -9.4341   17.8992   25.3048 H         1 GAN         0.2059
     71 H29       -11.0103   18.6135   26.5706 H         1 GAN         0.1097
     72 H30       -12.5846   16.7756   25.8161 H         1 GAN         0.0310
     73 H31       -11.1492   15.7321   25.5378 H         1 GAN         0.0310
     74 H32       -11.3565   17.2453   24.5923 H         1 GAN         0.0310
     75 H33       -12.1241   15.4924   27.4230 H         1 GAN         0.1885
     76 H34       -12.9805   16.3219   30.0105 H         1 GAN         0.0802
     77 H35       -14.0798   14.5670   28.3864 H         1 GAN         0.0343
     78 H36       -15.0092   13.3234   30.3142 H         1 GAN         0.0234
     79 H37       -14.8479   15.0806   30.6499 H         1 GAN         0.0234
     80 H38       -13.6558   13.9228   31.3319 H         1 GAN         0.0234
     81 H39       -12.1616   13.0576   28.0661 H         1 GAN         0.0234
     82 H40       -13.5699   12.2103   28.7910 H         1 GAN         0.0234
     83 H41       -12.1740   12.6756   29.8212 H         1 GAN         0.0234
     84 H42       -12.1904   16.0146   31.9623 H         1 GAN         0.1885
     85 H43       -10.0963   14.0658   32.6253 H         1 GAN         0.0819
     86 H44        -9.4101   16.6224   33.9468 H         1 GAN         0.0344
     87 H45        -7.9447   17.5461   32.2405 H         1 GAN         0.0235
     88 H46        -9.6407   17.6182   31.6532 H         1 GAN         0.0235
     89 H47        -8.5302   16.3476   31.0375 H         1 GAN         0.0235
     90 H48        -8.3010   14.3522   33.9820 H         1 GAN         0.0235
     91 H49        -7.1657   15.6279   33.4249 H         1 GAN         0.0235
     92 H50        -7.9359   14.5277   32.2320 H         1 GAN         0.0235
     93 H51       -12.8203   12.2893   34.4417 H         1 GAN         0.0577
     94 H52       -11.6773   12.7110   33.1218 H         1 GAN         0.0577
     95 H53       -13.2884   13.5014   33.2014 H         1 GAN         0.0577
@<TRIPOS>BOND
     1    2    1 1  
     2    2    3 1  
     3    2    4 1  
     4    4    5 2  
     5    4    6 am 
     6    6    7 1  
     7    7    8 1  
     8    7    9 1  
     9    9   10 2  
    10    9   20 1  
    11   10   11 1  
    12   11   12 1  
    13   11   19 1  
    14   12   13 1  
    15   13   14 ar 
    16   13   18 ar 
    17   14   15 ar 
    18   15   16 ar 
    19   16   17 ar 
    20   18   17 ar 
    21   19   22 1  
    22   20   21 1  
    23   22   21 1  
    24   22   23 1  
    25   23   24 1  
    26   23   25 1  
    27   25   26 2  
    28   25   27 am 
    29   27   28 1  
    30   28   29 1  
    31   28   32 1  
    32   29   30 1  
    33   29   31 1  
    34   32   33 2  
    35   32   34 am 
    36   34   35 1  
    37   35   36 1  
    38   35   39 1  
    39   36   37 1  
    40   36   38 1  
    41   39   40 2  
    42   39   41 1  
    43   41   42 1  
    44    1   43 1  
    45    1   44 1  
    46    1   45 1  
    47    2   46 1  
    48    3   47 1  
    49    3   48 1  
    50    3   49 1  
    51    6   50 1  
    52    7   51 1  
    53    8   52 1  
    54    8   53 1  
    55    8   54 1  
    56   10   55 1  
    57   11   56 1  
    58   12   57 1  
    59   12   58 1  
    60   14   59 1  
    61   15   60 1  
    62   16   61 1  
    63   17   62 1  
    64   18   63 1  
    65   19   64 1  
    66   19   65 1  
    67   20   66 1  
    68   20   67 1  
    69   21   68 1  
    70   21   69 1  
    71   22   70 1  
    72   23   71 1  
    73   24   72 1  
    74   24   73 1  
    75   24   74 1  
    76   27   75 1  
    77   28   76 1  
    78   29   77 1  
    79   30   78 1  
    80   30   79 1  
    81   30   80 1  
    82   31   81 1  
    83   31   82 1  
    84   31   83 1  
    85   34   84 1  
    86   35   85 1  
    87   36   86 1  
    88   37   87 1  
    89   37   88 1  
    90   37   89 1  
    91   38   90 1  
    92   38   91 1  
    93   38   92 1  
    94   42   93 1  
    95   42   94 1  
    96   42   95 1  
@<TRIPOS>SUBSTRUCTURE
     1 GAN         1

