### 
### Created by X-TOOL on Mon Sep 10 21:12:48 2018
### 

@<TRIPOS>MOLECULE
1hdq_ligand
   27    27     1     0     0
SMALL
GAST_HUCK


@<TRIPOS>ATOM
      1 N          -2.1330   30.7500   -6.0920 N.am      1 INF        -0.2546
      2 CA         -1.2390   31.8850   -6.3600 C.3       1 INF         0.1042
      3 C           0.1820   31.3410   -6.6460 C.2       1 INF         0.0618
      4 O           1.1610   32.0170   -6.6550 O.co2     1 INF        -0.5665
      5 CB         -1.7560   32.7370   -7.5670 C.3       1 INF         0.0157
      6 CG         -2.0310   31.9920   -8.8700 C.ar      1 INF        -0.0392
      7 CD1        -1.0350   31.9510   -9.8930 C.ar      1 INF        -0.0602
      8 CD2        -3.2670   31.3260   -9.1020 C.ar      1 INF        -0.0602
      9 CE1        -1.2660   31.2640  -11.1080 C.ar      1 INF        -0.0686
     10 CE2        -3.5010   30.6360  -10.3200 C.ar      1 INF        -0.0686
     11 CZ         -2.5000   30.6030  -11.3240 C.ar      1 INF        -0.0687
     12 OXT         0.2080   30.0210   -6.9010 O.co2     1 INF        -0.5665
     13 C1         -2.7510   30.5360   -4.9140 C.2       1 INF         0.2829
     14 O1         -2.6390   31.2580   -3.9310 O.2       1 INF        -0.4008
     15 N2         -3.5200   29.4380   -4.9230 N.am      1 INF        -0.1504
     16 O2         -3.6170   28.6530   -6.0850 O.3       1 INF        -0.2719
     17 H1         -2.2928   30.0950   -6.8306 H         1 INF         0.1869
     18 H2         -1.2032   32.5282   -5.4684 H         1 INF         0.0746
     19 H3         -0.9999   33.5076   -7.7780 H         1 INF         0.0466
     20 H4         -2.6942   33.2194   -7.2556 H         1 INF         0.0466
     21 H5         -0.0877   32.4540   -9.7360 H         1 INF         0.0557
     22 H6         -4.0380   31.3459   -8.3403 H         1 INF         0.0557
     23 H7         -0.4988   31.2435  -11.8735 H         1 INF         0.0599
     24 H8         -4.4472   30.1330  -10.4832 H         1 INF         0.0599
     25 H9         -2.6785   30.0740  -12.2531 H         1 INF         0.0559
     26 H10        -4.0259   29.1767   -4.1010 H         1 INF         0.2209
     27 H11        -3.9638   29.1810   -6.7945 H         1 INF         0.2486
@<TRIPOS>BOND
     1    6    7 ar 
     2    6    8 ar 
     3    7    9 ar 
     4    9   11 ar 
     5    8   10 ar 
     6    5    2 1  
     7    2    3 1  
     8    2    1 1  
     9    3    4 ar 
    10   13   15 am 
    11   13   14 2  
    12   15   16 1  
    13    1   13 am 
    14    3   12 ar 
    15    5    6 1  
    16   10   11 ar 
    17    1   17 1  
    18    2   18 1  
    19    5   19 1  
    20    5   20 1  
    21    7   21 1  
    22    8   22 1  
    23    9   23 1  
    24   10   24 1  
    25   11   25 1  
    26   15   26 1  
    27   16   27 1  
@<TRIPOS>SUBSTRUCTURE
     1 INF         1

