### 
### Created by X-TOOL on Mon Sep 10 21:12:45 2018
### 

@<TRIPOS>MOLECULE
1hdt_ligand
   75    76     1     0     0
SMALL
GAST_HUCK


@<TRIPOS>ATOM
      1 C          14.5380   38.0800    6.2290 C.2       1 0E7         0.1785
      2 O          13.5820   38.8710    6.0680 O.2       1 0E7        -0.3969
      3 CA         15.3060   38.0060    7.5550 C.3       1 0E7         0.0405
      4 CB         14.4600   37.9850    8.8120 C.3       1 0E7        -0.0029
      5 CD         13.5690   36.7840    8.9630 C.3       1 0E7         0.0646
      6 NE         12.3770   36.9620    8.1500 N.pl3     1 0E7        -0.2722
      7 CZ         11.1390   36.9780    8.5920 C.cat     1 0E7         0.2882
      8 NH1        10.8400   36.8070    9.8790 N.pl3     1 0E7        -0.2849
      9 NH2        10.1950   37.2230    7.7240 N.pl3     1 0E7        -0.2849
     10 N          14.9380   37.1840    5.3260 N.am      1 0E7        -0.2638
     11 CA         14.3710   36.9670    3.9880 C.3       1 0E7         0.1404
     12 C          12.8700   36.5940    4.0290 C.2       1 0E7         0.2060
     13 O          12.3910   36.0070    5.0170 O.2       1 0E7        -0.3942
     14 CB         15.1580   35.8030    3.3620 C.3       1 0E7         0.0214
     15 CG         14.9330   35.6220    1.8990 C.ar      1 0E7        -0.0386
     16 CD1        15.6840   36.3790    0.9680 C.ar      1 0E7        -0.0601
     17 CD2        13.9330   34.7240    1.4200 C.ar      1 0E7        -0.0601
     18 CE1        15.4420   36.2550   -0.4280 C.ar      1 0E7        -0.0686
     19 CE2        13.6770   34.5930    0.0230 C.ar      1 0E7        -0.0686
     20 CZ         14.4290   35.3630   -0.8980 C.ar      1 0E7        -0.0687
     21 N          12.1180   36.9680    2.9910 N.am      1 0E7        -0.2612
     22 CA         10.6920   36.6120    2.9150 C.3       1 0E7         0.1564
     23 CB          9.7180   37.8380    3.0200 C.3       1 0E7         0.0924
     24 CG2         9.9170   38.6150    4.3390 C.3       1 0E7        -0.0346
     25 OG1         8.3550   37.3790    2.9840 O.3       1 0E7        -0.3874
     26 C          10.3760   35.7570    1.6820 C.2       1 0E7         0.2060
     27 O          10.9360   35.9630    0.6120 O.2       1 0E7        -0.3943
     28 N           9.5290   34.7500    1.8890 N.am      1 0E7        -0.2676
     29 CA          9.0700   33.8230    0.8650 C.3       1 0E7         0.1039
     30 C           7.5750   34.0580    0.7040 C.2       1 0E7         0.0621
     31 O           7.0380   33.9540   -0.4080 O.co2     1 0E7        -0.5664
     32 CB          9.2660   32.3760    1.3190 C.3       1 0E7         0.0159
     33 CG         10.6410   31.8170    1.0730 C.ar      1 0E7        -0.0392
     34 CD1        11.0530   31.4530   -0.2470 C.ar      1 0E7        -0.0602
     35 CD2        11.5250   31.5940    2.1650 C.ar      1 0E7        -0.0602
     36 CE1        12.3440   30.8610   -0.4770 C.ar      1 0E7        -0.0686
     37 CE2        12.8180   31.0050    1.9640 C.ar      1 0E7        -0.0686
     38 CZ         13.2300   30.6370    0.6350 C.ar      1 0E7        -0.0687
     39 OXT         6.6830   34.3200    1.8360 O.co2     1 0E7        -0.5664
     40 H1         15.9684   38.8825    7.6097 H         1 0E7         0.0503
     41 H2         15.9124   37.0883    7.5421 H         1 0E7         0.0503
     42 H3         13.8240   38.8825    8.8093 H         1 0E7         0.0323
     43 H4         15.1368   38.0178    9.6785 H         1 0E7         0.0323
     44 H5         13.2800   36.6718   10.0184 H         1 0E7         0.0690
     45 H6         14.1075   35.8836    8.6325 H         1 0E7         0.0690
     46 H7         12.5148   37.0868    7.1369 H         1 0E7         0.2642
     47 H8          9.8571   36.8262   10.1863 H         1 0E7         0.2615
     48 H9         11.5917   36.6556   10.5667 H         1 0E7         0.2615
     49 H10        10.4308   37.3545    6.7300 H         1 0E7         0.2615
     50 H11         9.2144   37.2848    8.0332 H         1 0E7         0.2615
     51 H12        15.7049   36.5978    5.5871 H         1 0E7         0.1884
     52 H13        14.4967   37.8783    3.3849 H         1 0E7         0.0823
     53 H14        14.8629   34.8745    3.8726 H         1 0E7         0.0474
     54 H15        16.2304   35.9861    3.5248 H         1 0E7         0.0474
     55 H16        16.4502   37.0591    1.3221 H         1 0E7         0.0557
     56 H17        13.3607   34.1340    2.1267 H         1 0E7         0.0557
     57 H18        16.0246   36.8357   -1.1340 H         1 0E7         0.0599
     58 H19        12.9134   33.9099   -0.3310 H         1 0E7         0.0599
     59 H20        14.2358   35.2755   -1.9611 H         1 0E7         0.0559
     60 H21        12.5313   37.4997    2.2517 H         1 0E7         0.1884
     61 H22        10.4889   35.9827    3.7941 H         1 0E7         0.0826
     62 H23         9.9034   38.5124    2.1710 H         1 0E7         0.0639
     63 H24         9.2180   39.4636    4.3736 H         1 0E7         0.0257
     64 H25        10.9502   38.9886    4.3922 H         1 0E7         0.0257
     65 H26         9.7245   37.9465    5.1910 H         1 0E7         0.0257
     66 H27         8.2058   36.8962    2.1796 H         1 0E7         0.2101
     67 H28         9.1823   34.6212    2.8181 H         1 0E7         0.1877
     68 H29         9.6025   34.0006   -0.0810 H         1 0E7         0.0749
     69 H30         8.5403   31.7477    0.7817 H         1 0E7         0.0467
     70 H31         9.0650   32.3263    2.3993 H         1 0E7         0.0467
     71 H32        10.3854   31.6250   -1.0835 H         1 0E7         0.0557
     72 H33        11.2167   31.8737    3.1659 H         1 0E7         0.0557
     73 H34        12.6473   30.5856   -1.4806 H         1 0E7         0.0599
     74 H35        13.4793   30.8385    2.8066 H         1 0E7         0.0599
     75 H36        14.2050   30.1923    0.4719 H         1 0E7         0.0559
@<TRIPOS>BOND
     1    1    2 2  
     2    1    3 1  
     3    1   10 am 
     4    3    4 1  
     5    4    5 1  
     6    5    6 1  
     7    6    7 ar 
     8    7    8 ar 
     9    7    9 ar 
    10   10   11 1  
    11   11   12 1  
    12   11   14 1  
    13   12   13 2  
    14   12   21 am 
    15   14   15 1  
    16   15   16 ar 
    17   15   17 ar 
    18   16   18 ar 
    19   17   19 ar 
    20   18   20 ar 
    21   19   20 ar 
    22   21   22 1  
    23   22   23 1  
    24   22   26 1  
    25   23   24 1  
    26   23   25 1  
    27   26   27 2  
    28   26   28 am 
    29   28   29 1  
    30   29   30 1  
    31   29   32 1  
    32   30   31 ar 
    33   30   39 ar 
    34   32   33 1  
    35   33   34 ar 
    36   33   35 ar 
    37   34   36 ar 
    38   35   37 ar 
    39   36   38 ar 
    40   37   38 ar 
    41    3   40 1  
    42    3   41 1  
    43    4   42 1  
    44    4   43 1  
    45    5   44 1  
    46    5   45 1  
    47    6   46 1  
    48    8   47 1  
    49    8   48 1  
    50    9   49 1  
    51    9   50 1  
    52   10   51 1  
    53   11   52 1  
    54   14   53 1  
    55   14   54 1  
    56   16   55 1  
    57   17   56 1  
    58   18   57 1  
    59   19   58 1  
    60   20   59 1  
    61   21   60 1  
    62   22   61 1  
    63   23   62 1  
    64   24   63 1  
    65   24   64 1  
    66   24   65 1  
    67   25   66 1  
    68   28   67 1  
    69   29   68 1  
    70   32   69 1  
    71   32   70 1  
    72   34   71 1  
    73   35   72 1  
    74   36   73 1  
    75   37   74 1  
    76   38   75 1  
@<TRIPOS>SUBSTRUCTURE
     1 0E7         1

