### 
### Created by X-TOOL on Mon Sep 10 21:12:45 2018
### 

@<TRIPOS>MOLECULE
1hef_ligand
  102   103     1     0     0
SMALL
GAST_HUCK


@<TRIPOS>ATOM
      1 N         -13.6420   13.6160   34.9830 N.4       1 ALA         0.2377
      2 CA        -12.2960   13.8890   34.5570 C.3       1 ALA         0.0621
      3 C         -12.2520   14.5870   33.1620 C.2       1 ALA         0.2264
      4 O         -13.2750   14.4360   32.4770 O.2       1 ALA        -0.3907
      5 CB        -11.3990   12.6720   34.5400 C.3       1 ALA        -0.0040
      6 N         -11.1350   15.2080   32.9240 N.am      1 ALA        -0.2613
      7 CA        -10.3340   16.0110   32.1250 C.3       1 ALA         0.1282
      8 C         -10.0430   15.3530   30.7410 C.2       1 ALA         0.2018
      9 O          -9.3330   14.3720   30.6820 O.2       1 ALA        -0.3945
     10 CB         -9.0600   16.4730   32.8210 C.3       1 ALA        -0.0244
     11 N         -10.5900   16.0090   29.7450 N.am      1 PJJ        -0.2775
     12 CA        -10.8310   16.1070   28.3570 C.3       1 PJJ         0.0775
     13 CB        -12.3720   15.9770   28.1020 C.3       1 PJJ         0.0064
     14 CG        -12.9550   14.6590   28.6170 C.ar      1 PJJ        -0.0408
     15 CD1       -12.2870   13.4330   28.3470 C.ar      1 PJJ        -0.0603
     16 CD2       -14.1280   14.6950   29.3820 C.ar      1 PJJ        -0.0603
     17 CE1       -12.8240   12.2320   28.8470 C.ar      1 PJJ        -0.0686
     18 CE2       -14.6620   13.4730   29.8700 C.ar      1 PJJ        -0.0686
     19 CZ        -14.0220   12.2730   29.5870 C.ar      1 PJJ        -0.0687
     20 CH        -10.4180   17.4730   27.7490 C.3       1 PJJ         0.0823
     21 OH        -11.2920   18.4600   28.2800 O.3       1 PJJ        -0.3892
     22 CH2        -8.9690   17.7830   28.0620 C.3       1 PJJ        -0.0029
     23 CA         -7.9460   18.0530   26.9910 C.3       1 PJJ         0.0607
     24 C          -7.7610   17.0710   25.8550 C.2       1 PJJ         0.1834
     25 O          -7.1550   16.0070   26.0380 O.2       1 PJJ        -0.3965
     26 CB         -6.5570   18.0280   27.7500 C.3       1 PJJ         0.0007
     27 CG         -5.4470   18.1850   26.8670 C.ar      1 PJJ        -0.0405
     28 CD1        -5.3220   19.3400   26.0520 C.ar      1 PJJ        -0.0602
     29 CD2        -4.4870   17.1600   26.7730 C.ar      1 PJJ        -0.0602
     30 CE1        -4.2260   19.4600   25.1770 C.ar      1 PJJ        -0.0686
     31 CE2        -3.3940   17.2830   25.8920 C.ar      1 PJJ        -0.0686
     32 CZ         -3.2590   18.4530   25.1030 C.ar      1 PJJ        -0.0687
     33 N          -8.2070   17.3680   24.6220 N.am      1 VAL        -0.2650
     34 CA         -7.9530   16.4320   23.5160 C.3       1 VAL         0.1332
     35 C          -7.1290   17.2710   22.4950 C.2       1 VAL         0.2042
     36 O          -7.5590   18.3710   22.1260 O.2       1 VAL        -0.3944
     37 CB         -9.1200   15.7860   22.8240 C.3       1 VAL        -0.0063
     38 CG1        -8.8110   14.3880   22.2450 C.3       1 VAL        -0.0584
     39 CG2       -10.4520   15.7510   23.5360 C.3       1 VAL        -0.0584
     40 N          -6.0500   16.6410   22.1220 N.am      1 VME        -0.2621
     41 CA         -4.9650   16.8370   21.2520 C.3       1 VME         0.1445
     42 C          -3.9780   17.8990   21.7610 C.2       1 VME         0.2596
     43 O          -4.1100   18.1740   22.9550 O.2       1 VME        -0.3678
     44 CB         -5.3750   17.2340   19.8230 C.3       1 VME        -0.0049
     45 CG1        -5.6010   18.7340   19.7330 C.3       1 VME        -0.0583
     46 CG2        -4.3190   16.6550   18.8580 C.3       1 VME        -0.0583
     47 CM         -3.5390   19.4440   19.9810 C.3       1 VME         0.0658
     48 O          -3.0530   18.5280   20.9390 O.3       1 VME        -0.2784
     49 H1        -13.6243   13.1667   35.8851 H         1 ALA         0.2015
     50 H2        -14.0896   13.0091   34.3141 H         1 ALA         0.2015
     51 H3        -14.1557   14.4808   35.0484 H         1 ALA         0.2015
     52 H4        -11.8723   14.5914   35.2898 H         1 ALA         0.1095
     53 H5        -10.3925   12.9630   34.2049 H         1 ALA         0.0310
     54 H6        -11.8123   11.9214   33.8502 H         1 ALA         0.0310
     55 H7        -11.3394   12.2462   35.5525 H         1 ALA         0.0310
     56 H8        -10.5643   15.0033   33.7193 H         1 ALA         0.1884
     57 H9        -10.9182   16.9203   31.9203 H         1 ALA         0.0797
     58 H10        -8.4747   17.1023   32.1344 H         1 ALA         0.0277
     59 H11        -8.4634   15.5964   33.1135 H         1 ALA         0.0277
     60 H12        -9.3220   17.0539   33.7176 H         1 ALA         0.0277
     61 H13       -11.0425   16.8003   30.1563 H         1 PJJ         0.1857
     62 H14       -10.2878   15.2994   27.8445 H         1 PJJ         0.0604
     63 H15       -12.5547   16.0415   27.0192 H         1 PJJ         0.0449
     64 H16       -12.8826   16.8082   28.6102 H         1 PJJ         0.0449
     65 H17       -11.3742   13.4236   27.7625 H         1 PJJ         0.0557
     66 H18       -14.6185   15.6374   29.5973 H         1 PJJ         0.0557
     67 H19       -12.3226   11.2883   28.6652 H         1 PJJ         0.0599
     68 H20       -15.5691   13.4766   30.4634 H         1 PJJ         0.0599
     69 H21       -14.4549   11.3456   29.9443 H         1 PJJ         0.0559
     70 H22       -10.5384   17.4358   26.6562 H         1 PJJ         0.0619
     71 H23       -11.0617   19.3100   27.9237 H         1 PJJ         0.2099
     72 H24        -8.5905   16.9237   28.6350 H         1 PJJ         0.0320
     73 H25        -8.9803   18.6758   28.7044 H         1 PJJ         0.0320
     74 H26        -8.1528   19.0440   26.5607 H         1 PJJ         0.0561
     75 H27        -6.4582   17.0651   28.2725 H         1 PJJ         0.0453
     76 H28        -6.5418   18.8469   28.4842 H         1 PJJ         0.0453
     77 H29        -6.0668   20.1259   26.1031 H         1 PJJ         0.0557
     78 H30        -4.5891   16.2695   27.3827 H         1 PJJ         0.0557
     79 H31        -4.1307   20.3421   24.5542 H         1 PJJ         0.0599
     80 H32        -2.6610   16.4878   25.8181 H         1 PJJ         0.0599
     81 H33        -2.4067   18.5668   24.4429 H         1 PJJ         0.0559
     82 H34        -8.7073   18.2182   24.4581 H         1 VAL         0.1883
     83 H35        -7.3300   15.6145   23.9078 H         1 VAL         0.0802
     84 H36        -9.2924   16.4317   21.9504 H         1 VAL         0.0343
     85 H37        -9.7114   13.9857   21.7578 H         1 VAL         0.0234
     86 H38        -8.5021   13.7145   23.0580 H         1 VAL         0.0234
     87 H39        -7.9994   14.4680   21.5068 H         1 VAL         0.0234
     88 H40       -10.6733   16.7463   23.9489 H         1 VAL         0.0234
     89 H41       -10.4118   15.0157   24.3531 H         1 VAL         0.0234
     90 H42       -11.2408   15.4656   22.8244 H         1 VAL         0.0234
     91 H43        -5.9724   15.7621   22.5926 H         1 VME         0.1885
     92 H44        -4.4301   15.8777   21.1927 H         1 VME         0.0819
     93 H45        -6.3354   16.7517   19.5884 H         1 VME         0.0344
     94 H46        -5.8929   18.9998   18.7063 H         1 VME         0.0235
     95 H47        -4.6728   19.2613   19.9984 H         1 VME         0.0235
     96 H48        -6.4009   19.0267   20.4290 H         1 VME         0.0235
     97 H49        -4.2397   15.5685   19.0103 H         1 VME         0.0235
     98 H50        -3.3444   17.1250   19.0560 H         1 VME         0.0235
     99 H51        -4.6202   16.8587   17.8198 H         1 VME         0.0235
    100 H52        -2.6957   19.8583   19.4090 H         1 VME         0.0577
    101 H53        -4.0720   20.2599   20.4911 H         1 VME         0.0577
    102 H54        -4.2279   18.9276   19.2963 H         1 VME         0.0577
@<TRIPOS>BOND
     1    2    1 1  
     2    2    5 1  
     3    3    2 1  
     4    3    4 2  
     5    7    6 1  
     6    7   10 1  
     7    8    7 1  
     8    8    9 2  
     9    6    3 am 
    10   12   11 1  
    11   12   13 1  
    12   13   14 1  
    13   14   15 ar 
    14   14   16 ar 
    15   16   18 ar 
    16   18   19 ar 
    17   17   19 ar 
    18   15   17 ar 
    19   11    8 am 
    20   23   26 1  
    21   24   23 1  
    22   24   25 2  
    23   26   27 1  
    24   27   28 ar 
    25   27   29 ar 
    26   29   31 ar 
    27   31   32 ar 
    28   30   32 ar 
    29   28   30 ar 
    30   34   33 1  
    31   34   37 1  
    32   35   34 1  
    33   35   36 2  
    34   37   39 1  
    35   37   38 1  
    36   33   24 am 
    37   41   40 1  
    38   41   44 1  
    39   42   41 1  
    40   42   43 2  
    41   44   46 1  
    42   44   45 1  
    43   40   35 am 
    44   48   47 1  
    45   20   12 1  
    46   20   21 1  
    47   22   20 1  
    48   23   22 1  
    49   42   48 1  
    50    1   49 1  
    51    1   50 1  
    52    1   51 1  
    53    2   52 1  
    54    5   53 1  
    55    5   54 1  
    56    5   55 1  
    57    6   56 1  
    58    7   57 1  
    59   10   58 1  
    60   10   59 1  
    61   10   60 1  
    62   11   61 1  
    63   12   62 1  
    64   13   63 1  
    65   13   64 1  
    66   15   65 1  
    67   16   66 1  
    68   17   67 1  
    69   18   68 1  
    70   19   69 1  
    71   20   70 1  
    72   21   71 1  
    73   22   72 1  
    74   22   73 1  
    75   23   74 1  
    76   26   75 1  
    77   26   76 1  
    78   28   77 1  
    79   29   78 1  
    80   30   79 1  
    81   31   80 1  
    82   32   81 1  
    83   33   82 1  
    84   34   83 1  
    85   37   84 1  
    86   38   85 1  
    87   38   86 1  
    88   38   87 1  
    89   39   88 1  
    90   39   89 1  
    91   39   90 1  
    92   40   91 1  
    93   41   92 1  
    94   44   93 1  
    95   45   94 1  
    96   45   95 1  
    97   45   96 1  
    98   46   97 1  
    99   46   98 1  
   100   46   99 1  
   101   47  100 1  
   102   47  101 1  
   103   47  102 1  
@<TRIPOS>SUBSTRUCTURE
     1 ALA         1

