### 
### Created by X-TOOL on Mon Sep 10 21:12:45 2018
### 

@<TRIPOS>MOLECULE
1heg_ligand
   89    89     1     0     0
SMALL
GAST_HUCK


@<TRIPOS>ATOM
      1 N         -13.8230   14.4740   35.2070 N.4       1 PSI         0.2377
      2 CA        -12.5640   14.2090   34.5660 C.3       1 PSI         0.0621
      3 C         -12.3220   15.0960   33.3430 C.2       1 PSI         0.2264
      4 O         -13.0380   15.2390   32.3750 O.2       1 PSI        -0.3907
      5 CB        -12.2500   12.7420   34.3720 C.3       1 PSI        -0.0040
      6 N         -11.1640   15.7690   33.4360 N.am      1 PSI        -0.2613
      7 CA        -10.5980   16.6900   32.5180 C.3       1 PSI         0.1282
      8 C         -10.5140   16.1130   31.1200 C.2       1 PSI         0.2018
      9 O          -9.8530   15.1410   30.7800 O.2       1 PSI        -0.3945
     10 CB         -9.2620   17.1870   33.1080 C.3       1 PSI        -0.0244
     11 N         -11.2340   16.8020   30.1970 N.am      1 PSI        -0.2775
     12 CA        -11.2840   16.4970   28.7790 C.3       1 PSI         0.0775
     13 CB        -12.6700   16.0790   28.3220 C.3       1 PSI         0.0064
     14 CG        -13.4320   14.9710   29.0480 C.ar      1 PSI        -0.0408
     15 CD1       -13.0760   13.6290   28.9830 C.ar      1 PSI        -0.0603
     16 CD2       -14.5600   15.3730   29.8070 C.ar      1 PSI        -0.0603
     17 CE1       -13.8180   12.6380   29.6610 C.ar      1 PSI        -0.0686
     18 CE2       -15.3000   14.3800   30.4830 C.ar      1 PSI        -0.0686
     19 CZ        -14.9170   13.0430   30.4120 C.ar      1 PSI        -0.0687
     20 CH        -10.8180   17.7530   28.0100 C.3       1 PSI         0.0819
     21 OH        -11.6970   18.8220   28.2490 O.3       1 PSI        -0.3892
     22 CH2        -9.4050   18.1960   28.5460 C.3       1 PSI        -0.0076
     23 CA         -8.6050   18.8260   27.3980 C.3       1 PSI         0.0398
     24 C          -8.1830   17.8170   26.3600 C.2       1 PSI         0.1783
     25 O          -7.4700   16.8490   26.6960 O.2       1 PSI        -0.3969
     26 N          -8.5850   17.9710   25.1030 N.am      1 PSI        -0.2654
     27 CA         -8.2530   17.0230   24.0680 C.3       1 PSI         0.1332
     28 C          -7.3120   17.7050   23.0540 C.2       1 PSI         0.2042
     29 O          -7.5440   18.7990   22.5960 O.2       1 PSI        -0.3944
     30 CB         -9.4570   16.3770   23.3870 C.3       1 PSI        -0.0063
     31 CG1        -9.2640   14.9020   23.0550 C.3       1 PSI        -0.0584
     32 CG2       -10.7390   16.5330   24.2240 C.3       1 PSI        -0.0584
     33 N          -6.2770   16.9100   22.7550 N.am      1 PSI        -0.2621
     34 CA         -5.1960   17.1430   21.8630 C.3       1 PSI         0.1445
     35 C          -4.2530   18.1990   22.4730 C.2       1 PSI         0.2596
     36 O          -4.4340   18.6540   23.6000 O.2       1 PSI        -0.3678
     37 CB         -5.5890   17.4860   20.4370 C.3       1 PSI        -0.0049
     38 CG1        -7.0590   17.8530   20.2000 C.3       1 PSI        -0.0583
     39 CG2        -4.6720   18.5350   19.8020 C.3       1 PSI        -0.0583
     40 CM         -3.5630   18.4470   20.2780 C.3       1 PSI         0.0658
     41 O          -3.1720   18.6000   21.6520 O.3       1 PSI        -0.2784
     42 H1        -13.9298   13.8644   36.0026 H         1 PSI         0.2015
     43 H2        -14.5735   14.3095   34.5545 H         1 PSI         0.2015
     44 H3        -13.8486   15.4339   35.5135 H         1 PSI         0.2015
     45 H4        -11.8120   14.5446   35.2953 H         1 PSI         0.1095
     46 H5        -11.2731   12.6385   33.8771 H         1 PSI         0.0310
     47 H6        -13.0284   12.2799   33.7470 H         1 PSI         0.0310
     48 H7        -12.2201   12.2408   35.3507 H         1 PSI         0.0310
     49 H8        -10.6289   15.5980   34.2633 H         1 PSI         0.1884
     50 H9        -11.2688   17.5596   32.4554 H         1 PSI         0.0797
     51 H10        -8.7996   17.9050   32.4147 H         1 PSI         0.0277
     52 H11        -8.5857   16.3321   33.2555 H         1 PSI         0.0277
     53 H12        -9.4481   17.6784   34.0744 H         1 PSI         0.0277
     54 H13       -11.7719   17.5807   30.5200 H         1 PSI         0.1857
     55 H14       -10.5900   15.6692   28.5715 H         1 PSI         0.0604
     56 H15       -12.5714   15.7576   27.2746 H         1 PSI         0.0449
     57 H16       -13.3013   16.9784   28.3717 H         1 PSI         0.0449
     58 H17       -12.2103   13.3373   28.3994 H         1 PSI         0.0557
     59 H18       -14.8466   16.4167   29.8664 H         1 PSI         0.0557
     60 H19       -13.5398   11.5922   29.5984 H         1 PSI         0.0599
     61 H20       -16.1728   14.6598   31.0617 H         1 PSI         0.0599
     62 H21       -15.4891   12.2996   30.9552 H         1 PSI         0.0559
     63 H22       -10.7691   17.5334   26.9333 H         1 PSI         0.0619
     64 H23       -12.5695   18.5843   27.9578 H         1 PSI         0.2099
     65 H24        -8.8659   17.3181   28.9317 H         1 PSI         0.0315
     66 H25        -9.5319   18.9322   29.3534 H         1 PSI         0.0315
     67 H26        -9.2292   19.5904   26.9123 H         1 PSI         0.0503
     68 H27        -7.7040   19.2993   27.8154 H         1 PSI         0.0503
     69 H28        -9.1363   18.7711   24.8666 H         1 PSI         0.1883
     70 H29        -7.6911   16.2070   24.5459 H         1 PSI         0.0802
     71 H30        -9.6085   16.9103   22.4369 H         1 PSI         0.0343
     72 H31       -10.1714   14.5137   22.5693 H         1 PSI         0.0234
     73 H32        -9.0745   14.3394   23.9811 H         1 PSI         0.0234
     74 H33        -8.4069   14.7883   22.3750 H         1 PSI         0.0234
     75 H34       -10.8892   17.5945   24.4701 H         1 PSI         0.0234
     76 H35       -10.6437   15.9512   25.1527 H         1 PSI         0.0234
     77 H36       -11.6004   16.1649   23.6475 H         1 PSI         0.0234
     78 H37        -6.2629   16.0279   23.2259 H         1 PSI         0.1885
     79 H38        -4.6322   16.2004   21.8027 H         1 PSI         0.0819
     80 H39        -5.4267   16.5575   19.8699 H         1 PSI         0.0344
     81 H40        -7.2134   18.0786   19.1345 H         1 PSI         0.0235
     82 H41        -7.3184   18.7357   20.8029 H         1 PSI         0.0235
     83 H42        -7.6997   17.0080   20.4924 H         1 PSI         0.0235
     84 H43        -3.6219   18.2596   19.9794 H         1 PSI         0.0235
     85 H44        -4.8739   19.5186   20.2511 H         1 PSI         0.0235
     86 H45        -4.8613   18.5803   18.7194 H         1 PSI         0.0235
     87 H46        -2.7335   18.7546   19.6243 H         1 PSI         0.0577
     88 H47        -4.4424   19.0757   20.0748 H         1 PSI         0.0577
     89 H48        -3.8123   17.3936   20.0828 H         1 PSI         0.0577
@<TRIPOS>BOND
     1    2    1 1  
     2    2    5 1  
     3    3    2 1  
     4    3    4 2  
     5    7    6 1  
     6    7   10 1  
     7    8    7 1  
     8    8    9 2  
     9    6    3 am 
    10   12   11 1  
    11   12   13 1  
    12   13   14 1  
    13   14   15 ar 
    14   14   16 ar 
    15   16   18 ar 
    16   18   19 ar 
    17   17   19 ar 
    18   15   17 ar 
    19   11    8 am 
    20   24   23 1  
    21   24   25 2  
    22   27   26 1  
    23   27   30 1  
    24   28   27 1  
    25   28   29 2  
    26   30   32 1  
    27   30   31 1  
    28   26   24 am 
    29   34   33 1  
    30   34   37 1  
    31   35   34 1  
    32   35   36 2  
    33   37   39 1  
    34   37   38 1  
    35   33   28 am 
    36   41   40 1  
    37   20   12 1  
    38   20   21 1  
    39   22   20 1  
    40    1   42 1  
    41   23   22 1  
    42   35   41 1  
    43    1   43 1  
    44    1   44 1  
    45    2   45 1  
    46    5   46 1  
    47    5   47 1  
    48    5   48 1  
    49    6   49 1  
    50    7   50 1  
    51   10   51 1  
    52   10   52 1  
    53   10   53 1  
    54   11   54 1  
    55   12   55 1  
    56   13   56 1  
    57   13   57 1  
    58   15   58 1  
    59   16   59 1  
    60   17   60 1  
    61   18   61 1  
    62   19   62 1  
    63   20   63 1  
    64   21   64 1  
    65   22   65 1  
    66   22   66 1  
    67   23   67 1  
    68   23   68 1  
    69   26   69 1  
    70   27   70 1  
    71   30   71 1  
    72   31   72 1  
    73   31   73 1  
    74   31   74 1  
    75   32   75 1  
    76   32   76 1  
    77   32   77 1  
    78   33   78 1  
    79   34   79 1  
    80   37   80 1  
    81   38   81 1  
    82   38   82 1  
    83   38   83 1  
    84   39   84 1  
    85   39   85 1  
    86   39   86 1  
    87   40   87 1  
    88   40   88 1  
    89   40   89 1  
@<TRIPOS>SUBSTRUCTURE
     1 PSI         1

