### 
### Created by X-TOOL on Mon Sep 10 21:12:45 2018
### 

@<TRIPOS>MOLECULE
1hge_ligand
   42    42     1     0     0
SMALL
GAST_HUCK


@<TRIPOS>ATOM
      1 C1         -7.4970   71.9520   28.2680 C.2       1 MNA         0.1041
      2 C2         -8.1760   73.2210   27.7170 C.3       1 MNA         0.2201
      3 C3         -8.1230   74.3800   28.7340 C.3       1 MNA         0.0353
      4 C4         -6.7000   74.9400   28.8760 C.3       1 MNA         0.0850
      5 C5         -6.1830   75.4010   27.5000 C.3       1 MNA         0.0964
      6 C6         -6.2720   74.1980   26.5390 C.3       1 MNA         0.1143
      7 C7         -5.9650   74.4730   25.0950 C.3       1 MNA         0.1114
      8 C8         -6.0990   73.2090   24.2180 C.3       1 MNA         0.1065
      9 C9         -5.6300   73.4890   22.7960 C.3       1 MNA         0.0727
     10 C10        -4.2570   76.7850   26.9460 C.2       1 MNA         0.1733
     11 C11        -2.8270   77.2330   27.2400 C.3       1 MNA         0.0257
     12 C12        -9.7480   71.8280   26.4860 C.3       1 MNA         0.0386
     13 N5         -4.8190   75.8610   27.7130 N.am      1 MNA        -0.2790
     14 O1A        -7.8210   71.5230   29.3760 O.co2     1 MNA        -0.5426
     15 O1B        -6.6600   71.3620   27.5950 O.co2     1 MNA        -0.5426
     16 O2         -9.5390   72.8880   27.4540 O.3       1 MNA        -0.3501
     17 O4         -6.6260   76.0340   29.8050 O.3       1 MNA        -0.3893
     18 O6         -7.5800   73.6700   26.5030 O.3       1 MNA        -0.3384
     19 O7         -6.9210   75.4230   24.6800 O.3       1 MNA        -0.3865
     20 O8         -5.3260   72.1510   24.7320 O.3       1 MNA        -0.3869
     21 O9         -5.4080   72.2420   22.1810 O.3       1 MNA        -0.3924
     22 O10        -4.8700   77.2420   25.9810 O.2       1 MNA        -0.3974
     23 H1         -8.4614   74.0116   29.7137 H         1 MNA         0.0336
     24 H2         -8.7914   75.1847   28.3939 H         1 MNA         0.0336
     25 H3         -6.0505   74.1326   29.2451 H         1 MNA         0.0618
     26 H4         -6.7957   76.2267   27.1092 H         1 MNA         0.0608
     27 H5         -5.5725   73.4337   26.9085 H         1 MNA         0.0646
     28 H6         -4.9470   74.8780   24.9970 H         1 MNA         0.0647
     29 H7         -7.1563   72.9062   24.1976 H         1 MNA         0.0643
     30 H8         -4.6976   74.0723   22.8140 H         1 MNA         0.0584
     31 H9         -6.4019   74.0484   22.2472 H         1 MNA         0.0584
     32 H10        -2.5253   77.9987   26.5101 H         1 MNA         0.0467
     33 H11        -2.1497   76.3694   27.1665 H         1 MNA         0.0467
     34 H12        -2.7759   77.6538   28.2550 H         1 MNA         0.0467
     35 H13       -10.8268   71.6539   26.3601 H         1 MNA         0.0523
     36 H14        -9.2670   70.9054   26.8429 H         1 MNA         0.0523
     37 H15        -9.3088   72.1209   25.5209 H         1 MNA         0.0523
     38 H16        -4.2877   75.4670   28.4630 H         1 MNA         0.1856
     39 H17        -6.9448   75.7496   30.6535 H         1 MNA         0.2099
     40 H18        -7.7923   75.0566   24.7760 H         1 MNA         0.2100
     41 H19        -5.4453   71.3804   24.1894 H         1 MNA         0.2100
     42 H20        -4.7446   71.7649   22.6654 H         1 MNA         0.2095
@<TRIPOS>BOND
     1    2    1 1  
     2    1   14 ar 
     3    1   15 ar 
     4    3    2 1  
     5    2   16 1  
     6   18    2 1  
     7    4    3 1  
     8    3   23 1  
     9    3   24 1  
    10    5    4 1  
    11    4   17 1  
    12    4   25 1  
    13    5    6 1  
    14   13    5 1  
    15    5   26 1  
    16    6    7 1  
    17    6   18 1  
    18    6   27 1  
    19    7    8 1  
    20    7   19 1  
    21    7   28 1  
    22    8    9 1  
    23    8   20 1  
    24    8   29 1  
    25    9   21 1  
    26    9   30 1  
    27    9   31 1  
    28   10   11 1  
    29   10   13 am 
    30   10   22 2  
    31   11   32 1  
    32   11   33 1  
    33   11   34 1  
    34   16   12 1  
    35   12   35 1  
    36   12   36 1  
    37   12   37 1  
    38   13   38 1  
    39   17   39 1  
    40   19   40 1  
    41   20   41 1  
    42   21   42 1  
@<TRIPOS>SUBSTRUCTURE
     1 MNA         1

