### 
### Created by X-TOOL on Mon Sep 10 21:12:45 2018
### 

@<TRIPOS>MOLECULE
1hgi_ligand
   47    47     1     0     0
SMALL
GAST_HUCK


@<TRIPOS>ATOM
      1 C1         -7.5140   71.6350   28.1390 C.2       1 ANA         0.1041
      2 C2         -8.2370   72.9020   27.6560 C.3       1 ANA         0.2205
      3 C3         -8.1790   74.0100   28.7110 C.3       1 ANA         0.0400
      4 C4         -6.7690   74.5550   28.8370 C.3       1 ANA         0.1173
      5 C5         -6.3190   75.0860   27.4810 C.3       1 ANA         0.1011
      6 C6         -6.3410   73.9550   26.4600 C.3       1 ANA         0.1147
      7 C7         -5.9570   74.3300   25.0330 C.3       1 ANA         0.1114
      8 C8         -6.1310   73.1110   24.1080 C.3       1 ANA         0.1065
      9 C9         -5.5280   73.4090   22.7380 C.3       1 ANA         0.0727
     10 C10        -4.4950   76.6390   27.0280 C.2       1 ANA         0.1733
     11 C11        -3.0490   77.0410   27.2650 C.3       1 ANA         0.0257
     12 C12        -9.8620   71.5390   26.4670 C.3       1 ANA         0.0386
     13 CA4        -6.8080   75.2060   31.1970 C.2       1 ANA         0.2309
     14 CM4        -8.0340   75.6950   31.9280 C.3       1 ANA         0.0372
     15 N5         -4.9680   75.5860   27.6600 N.am      1 ANA        -0.2787
     16 O1A        -7.8140   71.1280   29.2190 O.co2     1 ANA        -0.5426
     17 O1B        -6.6280   71.1390   27.4570 O.co2     1 ANA        -0.5426
     18 O2         -9.6080   72.5550   27.4610 O.3       1 ANA        -0.3501
     19 O4         -6.5930   75.5930   29.8380 O.3       1 ANA        -0.2712
     20 O6         -7.6600   73.4020   26.4290 O.3       1 ANA        -0.3384
     21 O7         -6.7660   75.3990   24.5890 O.3       1 ANA        -0.3865
     22 O8         -5.5090   71.9820   24.6680 O.3       1 ANA        -0.3869
     23 O9         -5.4070   72.2350   21.9630 O.3       1 ANA        -0.3924
     24 O10        -5.2200   77.2380   26.2370 O.2       1 ANA        -0.3974
     25 OA4        -6.0560   74.4070   31.7540 O.2       1 ANA        -0.3707
     26 H1         -8.4966   73.6017   29.6818 H         1 ANA         0.0339
     27 H2         -8.8565   74.8251   28.4167 H         1 ANA         0.0339
     28 H3         -6.1167   73.7151   29.1182 H         1 ANA         0.0674
     29 H4         -6.9826   75.8973   27.1473 H         1 ANA         0.0612
     30 H5         -5.6343   73.1852   26.8034 H         1 ANA         0.0646
     31 H6         -4.9035   74.6459   25.0147 H         1 ANA         0.0647
     32 H7         -7.2048   72.9041   23.9891 H         1 ANA         0.0643
     33 H8         -4.5306   73.8523   22.8745 H         1 ANA         0.0584
     34 H9         -6.1769   74.1222   22.2086 H         1 ANA         0.0584
     35 H10        -2.8138   77.9336   26.6666 H         1 ANA         0.0467
     36 H11        -2.3855   76.2154   26.9682 H         1 ANA         0.0467
     37 H12        -2.9008   77.2652   28.3317 H         1 ANA         0.0467
     38 H13       -10.9441   71.3528   26.4013 H         1 ANA         0.0523
     39 H14        -9.3468   70.6100   26.7523 H         1 ANA         0.0523
     40 H15        -9.4887   71.8802   25.4902 H         1 ANA         0.0523
     41 H16        -8.0312   75.2991   32.9543 H         1 ANA         0.0483
     42 H17        -8.9365   75.3479   31.4036 H         1 ANA         0.0483
     43 H18        -8.0281   76.7945   31.9592 H         1 ANA         0.0483
     44 H19        -4.3652   75.1052   28.2968 H         1 ANA         0.1856
     45 H20        -6.6498   76.1439   25.1671 H         1 ANA         0.2100
     46 H21        -5.8890   71.8025   25.5200 H         1 ANA         0.2100
     47 H22        -4.8438   71.6164   22.4131 H         1 ANA         0.2095
@<TRIPOS>BOND
     1    2    1 1  
     2    1   16 ar 
     3    1   17 ar 
     4    3    2 1  
     5    2   18 1  
     6    2   20 1  
     7    4    3 1  
     8    3   26 1  
     9    3   27 1  
    10    4    5 1  
    11   19    4 1  
    12    4   28 1  
    13    5    6 1  
    14    5   15 1  
    15    5   29 1  
    16    6    7 1  
    17    6   20 1  
    18    6   30 1  
    19    7    8 1  
    20    7   21 1  
    21    7   31 1  
    22    8    9 1  
    23    8   22 1  
    24    8   32 1  
    25    9   23 1  
    26    9   33 1  
    27    9   34 1  
    28   10   11 1  
    29   15   10 am 
    30   10   24 2  
    31   11   35 1  
    32   11   36 1  
    33   11   37 1  
    34   18   12 1  
    35   13   14 1  
    36   13   19 1  
    37   13   25 2  
    38   12   38 1  
    39   12   39 1  
    40   12   40 1  
    41   14   41 1  
    42   14   42 1  
    43   14   43 1  
    44   15   44 1  
    45   21   45 1  
    46   22   46 1  
    47   23   47 1  
@<TRIPOS>SUBSTRUCTURE
     1 ANA         1

