### 
### Created by X-TOOL on Mon Sep 10 21:12:45 2018
### 

@<TRIPOS>MOLECULE
1hgj_ligand
   44    44     1     0     0
SMALL
GAST_HUCK


@<TRIPOS>ATOM
      1 C1         -7.6260   72.3680   28.8040 C.2       1 AMN         0.1041
      2 C2         -8.2630   73.6760   28.2840 C.3       1 AMN         0.2201
      3 C3         -8.0700   74.8110   29.3200 C.3       1 AMN         0.0353
      4 C4         -6.6270   75.2970   29.3750 C.3       1 AMN         0.0850
      5 C5         -6.1930   75.7220   27.9490 C.3       1 AMN         0.0964
      6 C6         -6.3400   74.5170   27.0180 C.3       1 AMN         0.1144
      7 C7         -5.9790   74.6750   25.5450 C.3       1 AMN         0.1142
      8 C8         -6.4190   73.4360   24.7480 C.3       1 AMN         0.1229
      9 C9         -6.0190   73.5480   23.2830 C.3       1 AMN        -0.0062
     10 C10        -4.3420   77.2200   27.4080 C.2       1 AMN         0.1733
     11 C11        -2.9150   77.6600   27.7030 C.3       1 AMN         0.0257
     12 C12        -9.9920   72.4180   27.1150 C.3       1 AMN         0.0386
     13 N5         -4.8150   76.1660   28.0560 N.am      1 AMN        -0.2790
     14 N9         -6.2100   72.1690   22.7750 N.4       1 AMN         0.2204
     15 O1A        -7.8530   72.0310   29.9600 O.co2     1 AMN        -0.5426
     16 O1B        -6.8960   71.6750   28.0820 O.co2     1 AMN        -0.5426
     17 O2         -9.6630   73.4300   28.0860 O.3       1 AMN        -0.3501
     18 O4         -6.4270   76.3690   30.3050 O.3       1 AMN        -0.3893
     19 O6         -7.6870   74.0810   27.0330 O.3       1 AMN        -0.3384
     20 O7         -6.6310   75.8090   25.0200 O.3       1 AMN        -0.3864
     21 O8         -5.8880   72.2380   25.2440 O.3       1 AMN        -0.3838
     22 O10        -5.0290   77.7790   26.5580 O.2       1 AMN        -0.3974
     23 H1         -8.3563   74.4366   30.3139 H         1 AMN         0.0336
     24 H2         -8.7186   75.6559   29.0456 H         1 AMN         0.0336
     25 H3         -5.9962   74.4551   29.6963 H         1 AMN         0.0618
     26 H4         -6.8230   76.5460   27.5827 H         1 AMN         0.0608
     27 H5         -5.6975   73.7238   27.4279 H         1 AMN         0.0646
     28 H6         -4.8903   74.8006   25.4509 H         1 AMN         0.0648
     29 H7         -7.5157   73.3765   24.8087 H         1 AMN         0.0674
     30 H8         -4.9700   73.8636   23.1833 H         1 AMN         0.0840
     31 H9         -6.6679   74.2584   22.7499 H         1 AMN         0.0840
     32 H10        -2.6694   78.5413   27.0922 H         1 AMN         0.0467
     33 H11        -2.2214   76.8413   27.4609 H         1 AMN         0.0467
     34 H12        -2.8230   77.9155   28.7689 H         1 AMN         0.0467
     35 H13       -11.0852   72.3160   27.0477 H         1 AMN         0.0523
     36 H14        -9.5525   71.4578   27.4228 H         1 AMN         0.0523
     37 H15        -9.5897   72.7074   26.1330 H         1 AMN         0.0523
     38 H16        -4.1934   75.6518   28.6469 H         1 AMN         0.1856
     39 H17        -5.9683   72.1348   21.7970 H         1 AMN         0.1995
     40 H18        -7.1737   71.8980   22.8926 H         1 AMN         0.1995
     41 H19        -5.6178   71.5362   23.2898 H         1 AMN         0.1995
     42 H20        -6.6983   76.0897   31.1716 H         1 AMN         0.2099
     43 H21        -6.3646   76.5798   25.5071 H         1 AMN         0.2100
     44 H22        -6.1238   72.1434   26.1594 H         1 AMN         0.2101
@<TRIPOS>BOND
     1    2    1 1  
     2    1   15 ar 
     3    1   16 ar 
     4    3    2 1  
     5    2   17 1  
     6   19    2 1  
     7    4    3 1  
     8    3   23 1  
     9    3   24 1  
    10    5    4 1  
    11    4   18 1  
    12    4   25 1  
    13    5    6 1  
    14   13    5 1  
    15    5   26 1  
    16    6    7 1  
    17    6   19 1  
    18    6   27 1  
    19    7    8 1  
    20    7   20 1  
    21    7   28 1  
    22    8    9 1  
    23    8   21 1  
    24    8   29 1  
    25    9   14 1  
    26    9   30 1  
    27    9   31 1  
    28   10   11 1  
    29   10   13 am 
    30   10   22 2  
    31   11   32 1  
    32   11   33 1  
    33   11   34 1  
    34   17   12 1  
    35   12   35 1  
    36   12   36 1  
    37   12   37 1  
    38   13   38 1  
    39   14   39 1  
    40   14   40 1  
    41   14   41 1  
    42   18   42 1  
    43   20   43 1  
    44   21   44 1  
@<TRIPOS>SUBSTRUCTURE
     1 AMN         1

