### 
### Created by X-TOOL on Mon Sep 10 21:12:45 2018
### 

@<TRIPOS>MOLECULE
1hih_ligand
   93    94     1     0     0
SMALL
GAST_HUCK


@<TRIPOS>ATOM
      1 C1          6.7720   -7.7770   17.7370 C.3       1 C20         0.0258
      2 C2          7.1810   -6.3010   17.7280 C.2       1 C20         0.1751
      3 O3          7.3320   -5.6920   18.7870 O.2       1 C20        -0.3972
      4 N4          7.3370   -5.7360   16.5290 N.am      1 C20        -0.2656
      5 C5          7.7120   -4.3250   16.3100 C.3       1 C20         0.1330
      6 C6          9.0510   -4.2240   15.5240 C.3       1 C20        -0.0063
      7 C7          9.4450   -2.7780   15.2470 C.3       1 C20        -0.0584
      8 C8         10.1660   -4.9490   16.2940 C.3       1 C20        -0.0584
      9 C9          6.5980   -3.6290   15.5190 C.2       1 C20         0.2024
     10 O10         6.4990   -3.8030   14.3070 O.2       1 C20        -0.3945
     11 N11         5.8130   -2.8010   16.1990 N.am      1 C20        -0.2773
     12 C12         4.6990   -2.1070   15.5770 C.3       1 C20         0.0823
     13 C13         3.4080   -2.5770   16.2330 C.3       1 C20         0.0066
     14 C14         3.2970   -4.0860   16.2750 C.ar      1 C20        -0.0408
     15 C15         3.3920   -4.8290   17.5510 C.ar      1 C20        -0.0603
     16 C16         3.2150   -6.1850   17.5400 C.ar      1 C20        -0.0686
     17 C17         2.9490   -6.8680   16.3470 C.ar      1 C20        -0.0687
     18 C18         2.8520   -6.2050   15.1350 C.ar      1 C20        -0.0686
     19 C19         3.0200   -4.8340   15.0600 C.ar      1 C20        -0.0603
     20 C20         4.8100   -0.5720   15.6880 C.3       1 C20         0.1201
     21 O21         5.0810   -0.1840   17.0370 O.3       1 C20        -0.3840
     22 C22         5.9520   -0.0500   14.8420 C.3       1 C20         0.0212
     23 N23         5.6940   -0.2190   13.4260 N.4       1 C20         0.3729
     24 C24         6.9760    0.2000   12.8490 C.3       1 C20        -0.0048
     25 C25         7.0550    0.7770   11.4470 C.3       1 C20        -0.0000
     26 C26         8.5770    0.7750   11.2470 C.3       1 C20        -0.0454
     27 C27         9.0840    1.7400   10.1890 C.3       1 C20        -0.0526
     28 C28         8.5960    3.1430   10.4910 C.3       1 C20        -0.0530
     29 C29         7.0770    3.1630   10.5400 C.3       1 C20        -0.0526
     30 C30         6.5680    2.2170   11.5930 C.3       1 C20        -0.0454
     31 N31         4.5240    0.5620   13.0690 N.am      1 C20        -0.2514
     32 C32         3.6110    0.1480   12.1910 C.2       1 C20         0.2389
     33 O33         3.5990   -0.9970   11.7100 O.2       1 C20        -0.3898
     34 C34         2.5780    1.1960   11.7700 C.3       1 C20         0.1375
     35 N35         2.9860    1.8490   10.5200 N.am      1 C20        -0.2654
     36 C36         1.1670    0.5740   11.6480 C.3       1 C20        -0.0061
     37 C37         0.7830   -0.1610   12.9230 C.3       1 C20        -0.0584
     38 C38         0.1340    1.6920   11.3430 C.3       1 C20        -0.0584
     39 C39         3.2180    3.1540   10.4490 C.2       1 C20         0.1751
     40 O40         3.0360    3.9100   11.4080 O.2       1 C20        -0.3972
     41 C41         3.7090    3.7320    9.1480 C.3       1 C20         0.0258
     42 H1          6.6762   -8.1246   18.7762 H         1 C20         0.0467
     43 H2          7.5386   -8.3731   17.2203 H         1 C20         0.0467
     44 H3          5.8075   -7.8934   17.2211 H         1 C20         0.0467
     45 H4          7.1896   -6.3085   15.7225 H         1 C20         0.1883
     46 H5          7.8312   -3.8291   17.2846 H         1 C20         0.0802
     47 H6          8.9156   -4.7283   14.5558 H         1 C20         0.0343
     48 H7         10.3942   -2.7566   14.6915 H         1 C20         0.0234
     49 H8          9.5657   -2.2419   16.1999 H         1 C20         0.0234
     50 H9          8.6596   -2.2919   14.6497 H         1 C20         0.0234
     51 H10         9.8635   -5.9894   16.4842 H         1 C20         0.0234
     52 H11        10.3425   -4.4376   17.2518 H         1 C20         0.0234
     53 H12        11.0900   -4.9391   15.6972 H         1 C20         0.0234
     54 H13         5.9949   -2.6506   17.1707 H         1 C20         0.1857
     55 H14         4.6766   -2.3730   14.5099 H         1 C20         0.0606
     56 H15         2.5564   -2.1761   15.6637 H         1 C20         0.0449
     57 H16         3.3746   -2.1918   17.2628 H         1 C20         0.0449
     58 H17         3.5984   -4.3075   18.4786 H         1 C20         0.0557
     59 H18         3.2816   -6.7395   18.4690 H         1 C20         0.0599
     60 H19         2.8156   -7.9435   16.3727 H         1 C20         0.0559
     61 H20         2.6416   -6.7680   14.2329 H         1 C20         0.0599
     62 H21         2.9459   -4.3236   14.1065 H         1 C20         0.0557
     63 H22         3.8644   -0.1201   15.3539 H         1 C20         0.0672
     64 H23         5.1330    0.7631   17.0885 H         1 C20         0.2101
     65 H24         6.8690   -0.5978   15.1046 H         1 C20         0.0848
     66 H25         6.0912    1.0205   15.0532 H         1 C20         0.0848
     67 H26         5.5149   -1.1836   13.1949 H         1 C20         0.2299
     68 H27         7.6271   -0.6865   12.8586 H         1 C20         0.0824
     69 H28         7.3873    0.9645   13.5246 H         1 C20         0.0824
     70 H29         6.5032    0.2123   10.6811 H         1 C20         0.0352
     71 H30         8.8823   -0.2412   10.9570 H         1 C20         0.0270
     72 H31         9.0480    1.0400   12.2051 H         1 C20         0.0270
     73 H32         8.7099    1.4286    9.2026 H         1 C20         0.0265
     74 H33        10.1839    1.7301   10.1839 H         1 C20         0.0265
     75 H34         8.9445    3.8278    9.7038 H         1 C20         0.0265
     76 H35         8.9965    3.4672   11.4628 H         1 C20         0.0265
     77 H36         6.6798    2.8603    9.5599 H         1 C20         0.0265
     78 H37         6.7364    4.1822   10.7748 H         1 C20         0.0265
     79 H38         6.8932    2.5907   12.5751 H         1 C20         0.0270
     80 H39         5.4690    2.2132   11.5476 H         1 C20         0.0270
     81 H40         4.3968    1.4540   13.5029 H         1 C20         0.2383
     82 H41         2.5380    1.9655   12.5550 H         1 C20         0.0804
     83 H42         3.0925    1.2929    9.6957 H         1 C20         0.1883
     84 H43         1.1691   -0.1455   10.8159 H         1 C20         0.0343
     85 H44        -0.2224   -0.5924   12.8088 H         1 C20         0.0234
     86 H45         0.7858    0.5438   13.7676 H         1 C20         0.0234
     87 H46         1.5078   -0.9659   13.1147 H         1 C20         0.0234
     88 H47         0.4224    2.2157   10.4196 H         1 C20         0.0234
     89 H48         0.1106    2.4074   12.1782 H         1 C20         0.0234
     90 H49        -0.8629    1.2451   11.2149 H         1 C20         0.0234
     91 H50         3.8499    4.8173    9.2590 H         1 C20         0.0467
     92 H51         2.9690    3.5373    8.3578 H         1 C20         0.0467
     93 H52         4.6667    3.2637    8.8770 H         1 C20         0.0467
@<TRIPOS>BOND
     1    1    2 1  
     2    2    4 am 
     3    2    3 2  
     4    4    5 1  
     5    5    9 1  
     6    5    6 1  
     7    6    8 1  
     8    6    7 1  
     9    9   11 am 
    10    9   10 2  
    11   11   12 1  
    12   12   20 1  
    13   12   13 1  
    14   13   14 1  
    15   14   19 ar 
    16   14   15 ar 
    17   15   16 ar 
    18   16   17 ar 
    19   17   18 ar 
    20   18   19 ar 
    21   20   22 1  
    22   20   21 1  
    23   22   23 1  
    24   23   31 1  
    25   23   24 1  
    26   24   25 1  
    27   25   30 1  
    28   25   26 1  
    29   26   27 1  
    30   27   28 1  
    31   28   29 1  
    32   29   30 1  
    33   31   32 am 
    34   32   34 1  
    35   32   33 2  
    36   34   36 1  
    37   34   35 1  
    38   35   39 am 
    39   39   41 1  
    40   39   40 2  
    41   36   38 1  
    42   36   37 1  
    43    1   42 1  
    44    1   43 1  
    45    1   44 1  
    46    4   45 1  
    47    5   46 1  
    48    6   47 1  
    49    7   48 1  
    50    7   49 1  
    51    7   50 1  
    52    8   51 1  
    53    8   52 1  
    54    8   53 1  
    55   11   54 1  
    56   12   55 1  
    57   13   56 1  
    58   13   57 1  
    59   15   58 1  
    60   16   59 1  
    61   17   60 1  
    62   18   61 1  
    63   19   62 1  
    64   20   63 1  
    65   21   64 1  
    66   22   65 1  
    67   22   66 1  
    68   23   67 1  
    69   24   68 1  
    70   24   69 1  
    71   25   70 1  
    72   26   71 1  
    73   26   72 1  
    74   27   73 1  
    75   27   74 1  
    76   28   75 1  
    77   28   76 1  
    78   29   77 1  
    79   29   78 1  
    80   30   79 1  
    81   30   80 1  
    82   31   81 1  
    83   34   82 1  
    84   35   83 1  
    85   36   84 1  
    86   37   85 1  
    87   37   86 1  
    88   37   87 1  
    89   38   88 1  
    90   38   89 1  
    91   38   90 1  
    92   41   91 1  
    93   41   92 1  
    94   41   93 1  
@<TRIPOS>SUBSTRUCTURE
     1 C20         1

