### 
### Created by X-TOOL on Mon Sep 10 21:12:50 2018
### 

@<TRIPOS>MOLECULE
1hk1_ligand
   35    36     1     0     0
SMALL
GAST_HUCK


@<TRIPOS>ATOM
      1 C1         -8.8380    0.4350   16.1240 C.ar      1 T44        -0.0403
      2 C2         -8.5030   -0.8960   15.9270 C.ar      1 T44        -0.0541
      3 C3         -8.7710   -1.5650   14.7400 C.ar      1 T44         0.0381
      4 C4         -9.4150   -0.8670   13.6630 C.ar      1 T44         0.1288
      5 C5         -9.7690    0.4540   13.8660 C.ar      1 T44         0.0381
      6 C6         -9.4990    1.1350   15.0750 C.ar      1 T44        -0.0541
      7 C7         -8.4600    1.0780   17.4500 C.3       1 T44         0.0324
      8 C8         -6.9520    1.2850   17.7520 C.3       1 T44         0.0365
      9 C9         -5.9370    1.2820   16.5510 C.2       1 T44         0.0864
     10 C1'        -8.5950   -1.3360   11.4930 C.ar      1 T44         0.1107
     11 C2'        -8.9690   -1.2970   10.1510 C.ar      1 T44        -0.0230
     12 C3'        -7.9560   -1.1160    9.1870 C.ar      1 T44         0.0330
     13 C4'        -6.5240   -0.9600    9.5080 C.ar      1 T44         0.0996
     14 C5'        -6.2470   -1.0120   10.8780 C.ar      1 T44         0.0330
     15 C6'        -7.2150   -1.1930   11.8700 C.ar      1 T44        -0.0230
     16 N8         -6.7950    2.6050   18.4820 N.4       1 T44         0.2340
     17 O4         -9.6400   -1.5140   12.4670 O.3       1 T44        -0.2638
     18 O4'        -5.5950   -0.7910    8.6000 O.3       1 T44        -0.3355
     19 O9         -5.9910    2.2340   15.7580 O.co2     1 T44        -0.5641
     20 O10        -5.1460    0.3320   16.4750 O.co2     1 T44        -0.5641
     21 I3         -8.1980   -3.5550   14.5810 I         1 T44        -0.0570
     22 I3'        -8.5320   -1.0760    7.1830 I         1 T44        -0.0586
     23 I5        -10.7310    1.5180   12.3380 I         1 T44        -0.0570
     24 I5'        -4.2520   -0.8100   11.4730 I         1 T44        -0.0586
     25 H1         -8.0133   -1.4348   16.7301 H         1 T44         0.0581
     26 H2         -9.7900    2.1716   15.2012 H         1 T44         0.0581
     27 H3         -8.8705    0.4446   18.2502 H         1 T44         0.0481
     28 H4         -8.9396    2.0674   17.4830 H         1 T44         0.0481
     29 H5         -6.6500    0.4685   18.4244 H         1 T44         0.1046
     30 H6        -10.0071   -1.4026    9.8572 H         1 T44         0.0576
     31 H7         -6.9276   -1.2253   12.9147 H         1 T44         0.0576
     32 H8         -5.8208    2.7607   18.6889 H         1 T44         0.2012
     33 H9         -7.3209    2.5783   19.3415 H         1 T44         0.2012
     34 H10        -7.1388    3.3534   17.9008 H         1 T44         0.2012
     35 H11        -4.9669   -1.5017    8.6550 H         1 T44         0.2470
@<TRIPOS>BOND
     1    2    1 ar 
     2    6    1 ar 
     3    1    7 1  
     4    3    2 ar 
     5    4    3 ar 
     6    3   21 1  
     7    4    5 ar 
     8   17    4 1  
     9    5    6 ar 
    10    5   23 1  
    11    7    8 1  
    12    8    9 1  
    13    8   16 1  
    14    9   19 ar 
    15    9   20 ar 
    16   10   11 ar 
    17   10   15 ar 
    18   10   17 1  
    19   11   12 ar 
    20   12   13 ar 
    21   12   22 1  
    22   13   14 ar 
    23   13   18 1  
    24   14   15 ar 
    25   14   24 1  
    26    2   25 1  
    27    6   26 1  
    28    7   27 1  
    29    7   28 1  
    30    8   29 1  
    31   11   30 1  
    32   15   31 1  
    33   16   32 1  
    34   16   33 1  
    35   16   34 1  
    36   18   35 1  
@<TRIPOS>SUBSTRUCTURE
     1 T44         1

