### 
### Created by X-TOOL on Mon Sep 10 21:12:50 2018
### 

@<TRIPOS>MOLECULE
1hk2_ligand
   35    36     1     0     0
SMALL
GAST_HUCK


@<TRIPOS>ATOM
      1 C1         -8.7150   -0.1570   16.5320 C.ar      1 T44        -0.0403
      2 C2         -8.5080   -1.4940   16.1720 C.ar      1 T44        -0.0541
      3 C3         -8.8450   -1.9840   14.9110 C.ar      1 T44         0.0381
      4 C4         -9.4150   -1.1090   13.9540 C.ar      1 T44         0.1288
      5 C5         -9.6370    0.1970   14.3100 C.ar      1 T44         0.0381
      6 C6         -9.3070    0.7180   15.5810 C.ar      1 T44        -0.0541
      7 C7         -8.2670    0.2920   17.9120 C.3       1 T44         0.0324
      8 C8         -6.7280    0.2350   18.1060 C.3       1 T44         0.0365
      9 C9         -5.8500    0.6800   16.8810 C.2       1 T44         0.0864
     10 C1'        -8.6940   -1.4100   11.6970 C.ar      1 T44         0.1107
     11 C2'        -9.1040   -1.3580   10.3750 C.ar      1 T44        -0.0230
     12 C3'        -8.1130   -1.1890    9.3940 C.ar      1 T44         0.0330
     13 C4'        -6.6900   -1.0540    9.6440 C.ar      1 T44         0.0996
     14 C5'        -6.3830   -1.1150   11.0130 C.ar      1 T44         0.0330
     15 C6'        -7.3150   -1.2810   12.0310 C.ar      1 T44        -0.0230
     16 N8         -6.3320    1.1290   19.2500 N.4       1 T44         0.2340
     17 O4         -9.7110   -1.5800   12.6920 O.3       1 T44        -0.2638
     18 O4'        -5.8010   -0.8980    8.6630 O.3       1 T44        -0.3355
     19 O9         -6.0440    1.8240   16.4390 O.co2     1 T44        -0.5641
     20 O10        -5.0340   -0.1400   16.4240 O.co2     1 T44        -0.5641
     21 I3         -8.5100   -3.9720   14.4470 I         1 T44        -0.0570
     22 I3'        -8.6610   -1.1050    7.4410 I         1 T44        -0.0586
     23 I5        -10.5080    1.4510   12.8940 I         1 T44        -0.0570
     24 I5'        -4.4250   -0.9230   11.5640 I         1 T44        -0.0586
     25 H1         -8.0713   -2.1706   16.8977 H         1 T44         0.0581
     26 H2         -9.5000    1.7566   15.8243 H         1 T44         0.0581
     27 H3         -8.7379   -0.3609   18.6617 H         1 T44         0.0481
     28 H4         -8.6004    1.3287   18.0673 H         1 T44         0.0481
     29 H5         -6.4675   -0.8056   18.3493 H         1 T44         0.1046
     30 H6        -10.1509   -1.4445   10.1074 H         1 T44         0.0576
     31 H7         -6.9963   -1.3119   13.0666 H         1 T44         0.0576
     32 H8         -5.3325    1.0914   19.3753 H         1 T44         0.2012
     33 H9         -6.7883    0.8178   20.0932 H         1 T44         0.2012
     34 H10        -6.6099    2.0766   19.0477 H         1 T44         0.2012
     35 H11        -5.1817   -1.6182    8.6808 H         1 T44         0.2470
@<TRIPOS>BOND
     1    2    1 ar 
     2    6    1 ar 
     3    1    7 1  
     4    3    2 ar 
     5    4    3 ar 
     6    3   21 1  
     7    4    5 ar 
     8   17    4 1  
     9    5    6 ar 
    10    5   23 1  
    11    7    8 1  
    12    8    9 1  
    13    8   16 1  
    14    9   19 ar 
    15    9   20 ar 
    16   10   11 ar 
    17   10   15 ar 
    18   10   17 1  
    19   11   12 ar 
    20   12   13 ar 
    21   12   22 1  
    22   13   14 ar 
    23   13   18 1  
    24   14   15 ar 
    25   14   24 1  
    26    2   25 1  
    27    6   26 1  
    28    7   27 1  
    29    7   28 1  
    30    8   29 1  
    31   11   30 1  
    32   15   31 1  
    33   16   32 1  
    34   16   33 1  
    35   16   34 1  
    36   18   35 1  
@<TRIPOS>SUBSTRUCTURE
     1 T44         1

