### 
### Created by X-TOOL on Mon Sep 10 21:12:50 2018
### 

@<TRIPOS>MOLECULE
1hk3_ligand
   35    36     1     0     0
SMALL
GAST_HUCK


@<TRIPOS>ATOM
      1 C1         -8.5170   -0.0260   16.9190 C.ar      1 T44        -0.0403
      2 C2         -8.2480   -1.3730   16.6270 C.ar      1 T44        -0.0541
      3 C3         -8.5270   -1.9240   15.3750 C.ar      1 T44         0.0381
      4 C4         -9.0770   -1.1180   14.3850 C.ar      1 T44         0.1288
      5 C5         -9.3550    0.1940   14.6570 C.ar      1 T44         0.0381
      6 C6         -9.0910    0.7910   15.9090 C.ar      1 T44        -0.0541
      7 C7         -8.1390    0.4980   18.2920 C.3       1 T44         0.0324
      8 C8         -6.6360    0.3710   18.6580 C.3       1 T44         0.0365
      9 C9         -5.6060    0.4660   17.5110 C.2       1 T44         0.0864
     10 C1'        -8.2890   -1.5180   12.1780 C.ar      1 T44         0.1107
     11 C2'        -8.7090   -1.4520   10.8500 C.ar      1 T44        -0.0230
     12 C3'        -7.6890   -1.2930    9.8590 C.ar      1 T44         0.0330
     13 C4'        -6.2760   -1.1940   10.1620 C.ar      1 T44         0.0996
     14 C5'        -5.9750   -1.2720   11.5200 C.ar      1 T44         0.0330
     15 C6'        -6.9260   -1.4300   12.5280 C.ar      1 T44        -0.0230
     16 N8         -6.2710    1.4650   19.6170 N.4       1 T44         0.2340
     17 O4         -9.3060   -1.6660   13.1550 O.3       1 T44        -0.2638
     18 O4'        -5.3610   -1.0430    9.2120 O.3       1 T44        -0.3355
     19 O9         -5.6890    1.4750   16.7690 O.co2     1 T44        -0.5641
     20 O10        -4.7340   -0.3990   17.4750 O.co2     1 T44        -0.5641
     21 I3         -8.0790   -3.9310   14.9420 I         1 T44        -0.0570
     22 I3'        -8.1820   -1.1870    7.8380 I         1 T44        -0.0586
     23 I5        -10.1670    1.3750   13.1120 I         1 T44        -0.0570
     24 I5'        -3.9800   -1.1310   12.0440 I         1 T44        -0.0586
     25 H1         -7.8119   -2.0020   17.3946 H         1 T44         0.0581
     26 H2         -9.3182    1.8349   16.0926 H         1 T44         0.0581
     27 H3         -8.7198   -0.0604   19.0409 H         1 T44         0.0481
     28 H4         -8.4110    1.5629   18.3364 H         1 T44         0.0481
     29 H5         -6.5041   -0.6055   19.1469 H         1 T44         0.1046
     30 H6         -9.7571   -1.5179   10.5814 H         1 T44         0.0576
     31 H7         -6.6212   -1.4844   13.5668 H         1 T44         0.0576
     32 H8         -5.2955    1.3881   19.8589 H         1 T44         0.2012
     33 H9         -6.8314    1.3818   20.4507 H         1 T44         0.2012
     34 H10        -6.4407    2.3602   19.1859 H         1 T44         0.2012
     35 H11        -4.7551   -1.7742    9.2384 H         1 T44         0.2470
@<TRIPOS>BOND
     1    2    1 ar 
     2    6    1 ar 
     3    1    7 1  
     4    3    2 ar 
     5    4    3 ar 
     6    3   21 1  
     7    4    5 ar 
     8   17    4 1  
     9    5    6 ar 
    10    5   23 1  
    11    7    8 1  
    12    8    9 1  
    13    8   16 1  
    14    9   19 ar 
    15    9   20 ar 
    16   10   11 ar 
    17   10   15 ar 
    18   10   17 1  
    19   11   12 ar 
    20   12   13 ar 
    21   12   22 1  
    22   13   14 ar 
    23   13   18 1  
    24   14   15 ar 
    25   14   24 1  
    26    2   25 1  
    27    6   26 1  
    28    7   27 1  
    29    7   28 1  
    30    8   29 1  
    31   11   30 1  
    32   15   31 1  
    33   16   32 1  
    34   16   33 1  
    35   16   34 1  
    36   18   35 1  
@<TRIPOS>SUBSTRUCTURE
     1 T44         1

