### 
### Created by X-TOOL on Mon Sep 10 21:12:50 2018
### 

@<TRIPOS>MOLECULE
1hk4_ligand
   35    36     1     0     0
SMALL
GAST_HUCK


@<TRIPOS>ATOM
      1 C1         19.9390   10.5710   28.4700 C.ar      1 T44        -0.0403
      2 C2         21.1460   10.1870   27.8620 C.ar      1 T44        -0.0541
      3 C3         21.3810   10.3590   26.4820 C.ar      1 T44         0.0381
      4 C4         20.3590   10.9500   25.6550 C.ar      1 T44         0.1288
      5 C5         19.1670   11.3290   26.2560 C.ar      1 T44         0.0381
      6 C6         18.9280   11.1580   27.6480 C.ar      1 T44        -0.0541
      7 C7         19.7550   10.3650   29.9740 C.3       1 T44         0.0324
      8 C8         20.0590    8.9880   30.5470 C.3       1 T44         0.0365
      9 C9         20.2560    8.9390   32.0910 C.2       1 T44         0.0864
     10 C1'        21.2590   12.2440   23.7610 C.ar      1 T44         0.1107
     11 C2'        21.4640   12.2220   22.3660 C.ar      1 T44        -0.0230
     12 C3'        22.1220   13.3170   21.7680 C.ar      1 T44         0.0330
     13 C4'        22.6000   14.4820   22.5190 C.ar      1 T44         0.0996
     14 C5'        22.3470   14.4070   23.9110 C.ar      1 T44         0.0330
     15 C6'        21.6970   13.3410   24.5500 C.ar      1 T44        -0.0230
     16 N8         18.9170    8.0720   30.2060 N.4       1 T44         0.2340
     17 O4         20.5960   11.1190   24.2950 O.3       1 T44        -0.2638
     18 O4'        23.2050   15.4860   21.9370 O.3       1 T44        -0.3355
     19 O9         19.5000    9.6380   32.7860 O.co2     1 T44        -0.5641
     20 O10        21.1510    8.2040   32.5210 O.co2     1 T44        -0.5641
     21 I3         23.2130    9.7650   25.6740 I         1 T44        -0.0570
     22 I3'        22.4340   13.3230   19.6990 I         1 T44        -0.0586
     23 I5         17.6480   12.2010   25.0820 I         1 T44        -0.0570
     24 I5'        22.9680   15.9870   25.1110 I         1 T44        -0.0586
     25 H1         21.9229    9.7435   28.4742 H         1 T44         0.0581
     26 H2         17.9853   11.4709   28.0822 H         1 T44         0.0581
     27 H3         18.7051   10.5933   30.2099 H         1 T44         0.0481
     28 H4         20.4107   11.0847   30.4858 H         1 T44         0.0481
     29 H5         20.9804    8.6190   30.0728 H         1 T44         0.1046
     30 H6         21.1243   11.3842   21.7679 H         1 T44         0.0576
     31 H7         21.5326   13.3540   25.6214 H         1 T44         0.0576
     32 H8         19.1006    7.1533   30.5780 H         1 T44         0.2012
     33 H9         18.8191    8.0155   29.2044 H         1 T44         0.2012
     34 H10        18.0655    8.4328   30.6070 H         1 T44         0.2012
     35 H11        23.2640   15.3206   21.0033 H         1 T44         0.2470
@<TRIPOS>BOND
     1    2    1 ar 
     2    6    1 ar 
     3    1    7 1  
     4    3    2 ar 
     5    4    3 ar 
     6    3   21 1  
     7    4    5 ar 
     8   17    4 1  
     9    5    6 ar 
    10    5   23 1  
    11    7    8 1  
    12    8    9 1  
    13    8   16 1  
    14    9   19 ar 
    15    9   20 ar 
    16   10   11 ar 
    17   10   15 ar 
    18   17   10 1  
    19   11   12 ar 
    20   12   13 ar 
    21   12   22 1  
    22   13   14 ar 
    23   13   18 1  
    24   14   15 ar 
    25   14   24 1  
    26    2   25 1  
    27    6   26 1  
    28    7   27 1  
    29    7   28 1  
    30    8   29 1  
    31   11   30 1  
    32   15   31 1  
    33   16   32 1  
    34   16   33 1  
    35   16   34 1  
    36   18   35 1  
@<TRIPOS>SUBSTRUCTURE
     1 T44         1

