### 
### Created by X-TOOL on Mon Sep 10 21:12:50 2018
### 

@<TRIPOS>MOLECULE
1hk5_ligand
   35    36     1     0     0
SMALL
GAST_HUCK


@<TRIPOS>ATOM
      1 C1         20.1330   10.6090   28.6660 C.ar      1 T44        -0.0403
      2 C2         21.3270   10.1840   28.0590 C.ar      1 T44        -0.0541
      3 C3         21.5560   10.3250   26.6700 C.ar      1 T44         0.0381
      4 C4         20.5570   10.9130   25.8390 C.ar      1 T44         0.1288
      5 C5         19.3850   11.3270   26.4330 C.ar      1 T44         0.0381
      6 C6         19.1360   11.1940   27.8270 C.ar      1 T44        -0.0541
      7 C7         19.9460   10.4410   30.1810 C.3       1 T44         0.0324
      8 C8         20.1380    9.0470   30.7770 C.3       1 T44         0.0365
      9 C9         19.8630    8.9210   32.3160 C.2       1 T44         0.0864
     10 C1'        21.4480   12.2100   23.9490 C.ar      1 T44         0.1107
     11 C2'        21.6110   12.2340   22.5600 C.ar      1 T44        -0.0230
     12 C3'        22.2530   13.3490   21.9790 C.ar      1 T44         0.0330
     13 C4'        22.7570   14.4910   22.7330 C.ar      1 T44         0.0996
     14 C5'        22.5470   14.3770   24.1240 C.ar      1 T44         0.0330
     15 C6'        21.9120   13.2880   24.7570 C.ar      1 T44        -0.0230
     16 N8         19.2120    8.0910   30.0630 N.4       1 T44         0.2340
     17 O4         20.7970   11.0580   24.4730 O.3       1 T44        -0.2638
     18 O4'        23.3510   15.5100   22.1520 O.3       1 T44        -0.3355
     19 O9         18.8240    9.4440   32.7560 O.co2     1 T44        -0.5641
     20 O10        20.7020    8.3070   32.9980 O.co2     1 T44        -0.5641
     21 I3         23.3470    9.6790   25.8460 I         1 T44        -0.0570
     22 I3'        22.5010   13.3930   19.9130 I         1 T44        -0.0586
     23 I5         17.9040   12.1940   25.2380 I         1 T44        -0.0570
     24 I5'        23.2150   15.9280   25.3310 I         1 T44        -0.0586
     25 H1         22.0972    9.7337   28.6747 H         1 T44         0.0581
     26 H2         18.1972   11.5338   28.2493 H         1 T44         0.0581
     27 H3         18.9216   10.7614   30.4218 H         1 T44         0.0481
     28 H4         20.6654   11.1102   30.6757 H         1 T44         0.0481
     29 H5         21.1805    8.7466   30.5957 H         1 T44         0.1046
     30 H6         21.2531   11.4164   21.9447 H         1 T44         0.0576
     31 H7         21.7801   13.2716   25.8328 H         1 T44         0.0576
     32 H8         19.3259    7.1650   30.4445 H         1 T44         0.2012
     33 H9         19.4343    8.0791   29.0799 H         1 T44         0.2012
     34 H10        18.2578    8.3909   30.1882 H         1 T44         0.2012
     35 H11        23.3778   15.3664   21.2133 H         1 T44         0.2470
@<TRIPOS>BOND
     1    2    1 ar 
     2    6    1 ar 
     3    1    7 1  
     4    3    2 ar 
     5    4    3 ar 
     6    3   21 1  
     7    4    5 ar 
     8   17    4 1  
     9    5    6 ar 
    10    5   23 1  
    11    7    8 1  
    12    8    9 1  
    13    8   16 1  
    14    9   19 ar 
    15    9   20 ar 
    16   10   11 ar 
    17   10   15 ar 
    18   10   17 1  
    19   11   12 ar 
    20   12   13 ar 
    21   12   22 1  
    22   13   14 ar 
    23   13   18 1  
    24   14   15 ar 
    25   14   24 1  
    26    2   25 1  
    27    6   26 1  
    28    7   27 1  
    29    7   28 1  
    30    8   29 1  
    31   11   30 1  
    32   15   31 1  
    33   16   32 1  
    34   16   33 1  
    35   16   34 1  
    36   18   35 1  
@<TRIPOS>SUBSTRUCTURE
     1 T44         1

