### 
### Created by X-TOOL on Mon Sep 10 21:12:51 2018
### 

@<TRIPOS>MOLECULE
1hkj_ligand
   89    92     1     0     0
SMALL
GAST_HUCK


@<TRIPOS>ATOM
      1 C1          0.7700   61.5540   -2.1230 C.3       1 NA1         0.1854
      2 C2         -0.6440   61.7040   -2.6760 C.3       1 NA1         0.1210
      3 C3         -1.3800   60.3760   -2.6480 C.3       1 NA1         0.1111
      4 C4         -0.5310   59.3040   -3.3630 C.3       1 NA1         0.1116
      5 C5          0.8580   59.2270   -2.7150 C.3       1 NA1         0.1132
      6 C6          1.7190   58.1550   -3.3960 C.3       1 NA1         0.0761
      7 C7         -1.4260   64.0030   -2.3490 C.2       1 NA1         0.1733
      8 C8         -2.1470   64.9810   -1.4090 C.3       1 NA1         0.0257
      9 N2         -1.3310   62.7410   -1.8960 N.am      1 NA1        -0.2766
     10 O3         -1.5920   60.0040   -1.2940 O.3       1 NA1        -0.3867
     11 O4         -1.1690   58.0220   -3.3070 O.3       1 NA1        -0.3865
     12 O5          1.4990   60.5170   -2.8210 O.3       1 NA1        -0.3408
     13 O6          3.0690   58.1200   -2.8550 O.3       1 NA1        -0.3803
     14 C9          3.0680   57.7650   -1.4640 C.3       1 NA1         0.0366
     15 O7         -1.0120   64.3770   -3.4560 O.2       1 NA1        -0.3974
     16 C1          5.2880   63.8540   -1.1050 C.3       1 NAA         0.1853
     17 C2          5.0380   62.3480   -1.3400 C.3       1 NAA         0.1210
     18 C3          3.7770   62.1260   -2.1740 C.3       1 NAA         0.1114
     19 C4          2.5890   62.9210   -1.5820 C.3       1 NAA         0.1181
     20 C5          2.9620   64.3940   -1.4370 C.3       1 NAA         0.1134
     21 C6          1.7890   65.1420   -0.8120 C.3       1 NAA         0.0730
     22 C7          7.0570   60.9810   -1.4900 C.2       1 NAA         0.1733
     23 C8          8.2570   60.4780   -2.2870 C.3       1 NAA         0.0257
     24 N2          6.1890   61.7980   -2.0710 N.am      1 NAA        -0.2766
     25 O3          4.0190   62.4960   -3.5380 O.3       1 NAA        -0.3867
     26 O4          1.4040   62.8030   -2.3570 O.3       1 NAA        -0.3404
     27 O5          4.1110   64.5000   -0.5540 O.3       1 NAA        -0.3408
     28 O6          2.1550   66.5020   -0.6270 O.3       1 NAA        -0.3924
     29 O7          6.9160   60.6500   -0.3130 O.2       1 NAA        -0.3974
     30 C1          8.6170   66.6900    1.0410 C.3       1 AMI         0.1138
     31 C2          7.2370   67.3860    1.0800 C.3       1 AMI         0.1538
     32 C3          6.2000   66.2900    0.7770 C.3       1 AMI         0.1281
     33 C4          6.9390   65.2840   -0.1190 C.3       1 AMI         0.0995
     34 C5          8.2580   65.2600    0.6310 C.3       1 AMI         0.0415
     35 C6          9.3770   64.4890   -0.0700 C.3       1 AMI         0.0520
     36 C7          8.2200   67.4220    3.1490 C.cat     1 AMI         0.3581
     37 C8          7.4750   68.5390    5.1980 C.3       1 AMI         0.0801
     38 C9          9.6560   67.2370    5.1170 C.3       1 AMI         0.0801
     39 N2          7.1590   67.8300    2.4680 N.pl3     1 AMI        -0.2303
     40 N7          8.4440   67.7280    4.4410 N.pl3     1 AMI        -0.2309
     41 O3          5.1160   66.8670    0.0420 O.3       1 AMI        -0.3844
     42 O4          6.3620   63.9650   -0.1640 O.3       1 AMI        -0.3425
     43 O6          9.5740   65.0100   -1.3790 O.3       1 AMI        -0.3946
     44 O7          9.1030   66.6900    2.4290 O.3       1 AMI        -0.3125
     45 H1          0.7389   61.3259   -1.0474 H         1 NA1         0.0935
     46 H2         -0.5828   62.0366   -3.7227 H         1 NA1         0.0633
     47 H3         -2.3487   60.4773   -3.1592 H         1 NA1         0.0645
     48 H4         -0.4156   59.5926   -4.4182 H         1 NA1         0.0647
     49 H5          0.7434   58.9672   -1.6523 H         1 NA1         0.0647
     50 H6          1.7729   58.3731   -4.4728 H         1 NA1         0.0586
     51 H7          1.2493   57.1720   -3.2440 H         1 NA1         0.0586
     52 H8         -2.1717   65.9802   -1.8684 H         1 NA1         0.0467
     53 H9         -1.6100   65.0314   -0.4503 H         1 NA1         0.0467
     54 H10        -3.1755   64.6318   -1.2353 H         1 NA1         0.0467
     55 H11        -1.7352   62.5043   -1.0125 H         1 NA1         0.1857
     56 H12        -2.0483   59.1713   -1.2633 H         1 NA1         0.2100
     57 H13        -1.2608   57.7546   -2.4001 H         1 NA1         0.2100
     58 H14         4.1020   57.7483   -1.0891 H         1 NA1         0.0524
     59 H15         2.6169   56.7695   -1.3399 H         1 NA1         0.0524
     60 H16         2.4844   58.5053   -0.8970 H         1 NA1         0.0524
     61 H17         5.5618   64.3386   -2.0538 H         1 NA1         0.0935
     62 H18         4.9301   61.8382   -0.3712 H         1 NA1         0.0633
     63 H19         3.5239   61.0559   -2.1453 H         1 NA1         0.0645
     64 H20         2.3794   62.5155   -0.5812 H         1 NA1         0.0650
     65 H21         3.2011   64.8220   -2.4217 H         1 NA1         0.0647
     66 H22         1.5398   64.6915    0.1601 H         1 NA1         0.0584
     67 H23         0.9160   65.0822   -1.4785 H         1 NA1         0.0584
     68 H24         8.8663   59.8163   -1.6539 H         1 NA1         0.0467
     69 H25         8.8650   61.3344   -2.6141 H         1 NA1         0.0467
     70 H26         7.9048   59.9207   -3.1675 H         1 NA1         0.0467
     71 H27         6.3206   62.0463   -3.0307 H         1 NA1         0.1857
     72 H28         3.2437   62.3150   -4.0564 H         1 NA1         0.2100
     73 H29         1.4283   66.9742   -0.2377 H         1 NA1         0.2095
     74 H30         9.3300   67.1653    0.3513 H         1 NA1         0.0644
     75 H31         7.1522   68.2237    0.3721 H         1 NA1         0.0888
     76 H32         5.8340   65.8147    1.6991 H         1 NA1         0.0668
     77 H33         7.0465   65.6640   -1.1457 H         1 NA1         0.0629
     78 H34         8.0722   64.7095    1.5650 H         1 NA1         0.0376
     79 H35         9.1015   63.4262   -0.1376 H         1 NA1         0.0561
     80 H36        10.3078   64.5905    0.5074 H         1 NA1         0.0561
     81 H37         7.8374   68.6772    6.2273 H         1 NA1         0.0761
     82 H38         6.5027   68.0250    5.2176 H         1 NA1         0.0761
     83 H39         7.3613   69.5205    4.7145 H         1 NA1         0.0761
     84 H40        10.2611   66.6541    4.4071 H         1 NA1         0.0761
     85 H41         9.3694   66.5982    5.9654 H         1 NA1         0.0761
     86 H42        10.2432   68.0918    5.4836 H         1 NA1         0.0761
     87 H43         6.3860   68.3840    2.8636 H         1 NA1         0.3231
     88 H44         4.5175   66.1806   -0.2287 H         1 NA1         0.2101
     89 H45        10.2699   64.5274   -1.8093 H         1 NA1         0.2094
@<TRIPOS>BOND
     1    1    2 1  
     2    1   12 1  
     3   26    1 1  
     4    2    3 1  
     5    2    9 1  
     6    3    4 1  
     7    3   10 1  
     8    5    4 1  
     9    4   11 1  
    10    5    6 1  
    11   12    5 1  
    12    6   13 1  
    13    7    8 1  
    14    9    7 am 
    15    7   15 2  
    16   13   14 1  
    17   16   17 1  
    18   16   27 1  
    19   42   16 1  
    20   17   18 1  
    21   17   24 1  
    22   18   19 1  
    23   18   25 1  
    24   20   19 1  
    25   19   26 1  
    26   20   21 1  
    27   27   20 1  
    28   21   28 1  
    29   22   23 1  
    30   24   22 am 
    31   22   29 2  
    32   30   31 1  
    33   34   30 1  
    34   30   44 1  
    35   32   31 1  
    36   31   39 1  
    37   33   32 1  
    38   32   41 1  
    39   33   34 1  
    40   33   42 1  
    41   34   35 1  
    42   35   43 1  
    43   39   36 ar 
    44   36   40 ar 
    45   36   44 1  
    46   40   37 1  
    47   40   38 1  
    48    1   45 1  
    49    2   46 1  
    50    3   47 1  
    51    4   48 1  
    52    5   49 1  
    53    6   50 1  
    54    6   51 1  
    55    8   52 1  
    56    8   53 1  
    57    8   54 1  
    58    9   55 1  
    59   10   56 1  
    60   11   57 1  
    61   14   58 1  
    62   14   59 1  
    63   14   60 1  
    64   16   61 1  
    65   17   62 1  
    66   18   63 1  
    67   19   64 1  
    68   20   65 1  
    69   21   66 1  
    70   21   67 1  
    71   23   68 1  
    72   23   69 1  
    73   23   70 1  
    74   24   71 1  
    75   25   72 1  
    76   28   73 1  
    77   30   74 1  
    78   31   75 1  
    79   32   76 1  
    80   33   77 1  
    81   34   78 1  
    82   35   79 1  
    83   35   80 1  
    84   37   81 1  
    85   37   82 1  
    86   37   83 1  
    87   38   84 1  
    88   38   85 1  
    89   38   86 1  
    90   39   87 1  
    91   41   88 1  
    92   43   89 1  
@<TRIPOS>SUBSTRUCTURE
     1 NA1         1

