### 
### Created by X-TOOL on Mon Sep 10 21:12:51 2018
### 

@<TRIPOS>MOLECULE
1hkk_ligand
   86    89     1     0     0
SMALL
GAST_HUCK


@<TRIPOS>ATOM
      1 C1          0.6930   62.5800   -2.8850 C.3       1 NAA         0.1854
      2 C2         -0.8410   62.7890   -2.9520 C.3       1 NAA         0.1210
      3 C3         -1.5520   61.4420   -3.1870 C.3       1 NAA         0.1111
      4 C4         -0.8990   60.6600   -4.3570 C.3       1 NAA         0.1116
      5 C5          0.6210   60.5090   -4.1230 C.3       1 NAA         0.1130
      6 C6          1.3280   59.8670   -5.3350 C.3       1 NAA         0.0730
      7 C7         -1.6410   64.6470   -1.4830 C.2       1 NAA         0.1733
      8 C8         -2.0710   64.9850   -0.0530 C.3       1 NAA         0.0257
      9 N2         -1.3050   63.3680   -1.6660 N.am      1 NAA        -0.2766
     10 O3         -1.4840   60.6590   -1.9890 O.3       1 NAA        -0.3867
     11 O4         -1.4910   59.3680   -4.4290 O.3       1 NAA        -0.3865
     12 O5          1.1880   61.8220   -4.0090 O.3       1 NAA        -0.3408
     13 O6          1.3230   60.8050   -6.4400 O.3       1 NAA        -0.3924
     14 O7         -1.6330   65.5090   -2.3620 O.2       1 NAA        -0.3974
     15 C1          5.2220   64.8900   -1.8860 C.3       1 NAA         0.1853
     16 C2          5.0280   63.3850   -2.1500 C.3       1 NAA         0.1210
     17 C3          3.7250   63.1440   -2.9480 C.3       1 NAA         0.1114
     18 C4          2.5380   63.8980   -2.2630 C.3       1 NAA         0.1181
     19 C5          2.9000   65.3730   -2.1160 C.3       1 NAA         0.1134
     20 C6          1.7690   66.1190   -1.4310 C.3       1 NAA         0.0730
     21 C7          7.1340   62.1230   -2.3840 C.2       1 NAA         0.1733
     22 C8          8.3730   61.7320   -3.2110 C.3       1 NAA         0.0257
     23 N2          6.2070   62.9250   -2.9210 N.am      1 NAA        -0.2766
     24 O3          3.8980   63.5900   -4.3070 O.3       1 NAA        -0.3867
     25 O4          1.3030   63.8400   -2.9760 O.3       1 NAA        -0.3404
     26 O5          4.0520   65.4940   -1.2880 O.3       1 NAA        -0.3408
     27 O6          2.1090   67.5010   -1.3420 O.3       1 NAA        -0.3924
     28 O7          7.0250   61.7280   -1.2240 O.2       1 NAA        -0.3974
     29 C1          8.5580   67.6390    0.2700 C.3       1 AMI         0.1138
     30 C2          7.1820   68.3720    0.3020 C.3       1 AMI         0.1538
     31 C3          6.1470   67.2730    0.0450 C.3       1 AMI         0.1281
     32 C4          6.8430   66.3050   -0.9120 C.3       1 AMI         0.0995
     33 C5          8.1940   66.2240   -0.2160 C.3       1 AMI         0.0415
     34 C6          9.2960   65.5640   -1.0820 C.3       1 AMI         0.0520
     35 C7          8.1430   68.3670    2.3680 C.cat     1 AMI         0.3581
     36 C8          7.3550   69.4470    4.4150 C.3       1 AMI         0.0801
     37 C9          9.5360   68.1280    4.3590 C.3       1 AMI         0.0801
     38 N2          7.1130   68.8400    1.6730 N.pl3     1 AMI        -0.2303
     39 N7          8.3270   68.6240    3.6710 N.pl3     1 AMI        -0.2309
     40 O3          4.9740   67.8330   -0.5540 O.3       1 AMI        -0.3844
     41 O4          6.3020   64.9960   -0.9770 O.3       1 AMI        -0.3425
     42 O6          9.5290   66.3560   -2.2650 O.3       1 AMI        -0.3946
     43 O7          8.9970   67.5680    1.6600 O.3       1 AMI        -0.3125
     44 H1          0.9595   62.0791   -1.9427 H         1 NAA         0.0935
     45 H2         -1.0812   63.4774   -3.7756 H         1 NAA         0.0633
     46 H3         -2.6065   61.6344   -3.4341 H         1 NAA         0.0645
     47 H4         -1.0711   61.1999   -5.2998 H         1 NAA         0.0647
     48 H5          0.8024   59.9167   -3.2140 H         1 NAA         0.0647
     49 H6          0.7961   58.9499   -5.6282 H         1 NAA         0.0584
     50 H7          2.3657   59.6193   -5.0672 H         1 NAA         0.0584
     51 H8         -2.3292   66.0524    0.0096 H         1 NAA         0.0467
     52 H9         -1.2449   64.7664    0.6397 H         1 NAA         0.0467
     53 H10        -2.9479   64.3792    0.2191 H         1 NAA         0.0467
     54 H11        -1.3707   62.7547   -0.8789 H         1 NAA         0.1857
     55 H12        -1.9479   59.8404   -2.1203 H         1 NAA         0.2100
     56 H13        -1.3375   58.9047   -3.6140 H         1 NAA         0.2100
     57 H14         1.7822   61.5963   -6.1843 H         1 NAA         0.2095
     58 H15         5.4580   65.4069   -2.8279 H         1 NAA         0.0935
     59 H16         4.9721   62.8417   -1.1952 H         1 NAA         0.0633
     60 H17         3.5033   62.0666   -2.9544 H         1 NAA         0.0645
     61 H18         2.3847   63.4562   -1.2673 H         1 NAA         0.0650
     62 H19         3.0954   65.8085   -3.1070 H         1 NAA         0.0647
     63 H20         1.6172   65.7111   -0.4208 H         1 NAA         0.0584
     64 H21         0.8444   66.0040   -2.0157 H         1 NAA         0.0584
     65 H22         9.0202   61.0737   -2.6129 H         1 NAA         0.0467
     66 H23         8.9295   62.6392   -3.4890 H         1 NAA         0.0467
     67 H24         8.0543   61.2038   -4.1217 H         1 NAA         0.0467
     68 H25         6.3129   63.2224   -3.8698 H         1 NAA         0.1857
     69 H26         4.6224   63.1203   -4.7034 H         1 NAA         0.2100
     70 H27         1.4041   67.9724   -0.9139 H         1 NAA         0.2095
     71 H28         9.3002   68.1311   -0.3757 H         1 NAA         0.0644
     72 H29         7.1000   69.1923   -0.4262 H         1 NAA         0.0888
     73 H30         5.8752   66.7643    0.9817 H         1 NAA         0.0668
     74 H31         6.9075   66.7254   -1.9265 H         1 NAA         0.0629
     75 H32         8.0728   65.5878    0.6731 H         1 NAA         0.0376
     76 H33         8.9732   64.5545   -1.3764 H         1 NAA         0.0561
     77 H34        10.2264   65.4961   -0.4992 H         1 NAA         0.0561
     78 H35         7.6802   69.5420    5.4615 H         1 NAA         0.0761
     79 H36         6.3658   68.9671    4.3806 H         1 NAA         0.0761
     80 H37         7.2942   70.4456    3.9578 H         1 NAA         0.0761
     81 H38        10.1414   67.5370    3.6560 H         1 NAA         0.0761
     82 H39         9.2407   67.4961    5.2096 H         1 NAA         0.0761
     83 H40        10.1265   68.9814    4.7238 H         1 NAA         0.0761
     84 H41         6.3744   69.4494    2.0526 H         1 NAA         0.3231
     85 H42         4.3688   67.1350   -0.7753 H         1 NAA         0.2101
     86 H43        10.2054   65.9459   -2.7912 H         1 NAA         0.2094
@<TRIPOS>BOND
     1    1    2 1  
     2    1   12 1  
     3   25    1 1  
     4    2    3 1  
     5    2    9 1  
     6    3    4 1  
     7    3   10 1  
     8    5    4 1  
     9    4   11 1  
    10    5    6 1  
    11   12    5 1  
    12    6   13 1  
    13    7    8 1  
    14    9    7 am 
    15    7   14 2  
    16   15   16 1  
    17   15   26 1  
    18   41   15 1  
    19   16   17 1  
    20   16   23 1  
    21   17   18 1  
    22   17   24 1  
    23   19   18 1  
    24   18   25 1  
    25   19   20 1  
    26   26   19 1  
    27   20   27 1  
    28   21   22 1  
    29   23   21 am 
    30   21   28 2  
    31   29   30 1  
    32   33   29 1  
    33   29   43 1  
    34   31   30 1  
    35   30   38 1  
    36   32   31 1  
    37   31   40 1  
    38   32   33 1  
    39   32   41 1  
    40   33   34 1  
    41   34   42 1  
    42   38   35 ar 
    43   35   39 ar 
    44   35   43 1  
    45   39   36 1  
    46   39   37 1  
    47    1   44 1  
    48    2   45 1  
    49    3   46 1  
    50    4   47 1  
    51    5   48 1  
    52    6   49 1  
    53    6   50 1  
    54    8   51 1  
    55    8   52 1  
    56    8   53 1  
    57    9   54 1  
    58   10   55 1  
    59   11   56 1  
    60   13   57 1  
    61   15   58 1  
    62   16   59 1  
    63   17   60 1  
    64   18   61 1  
    65   19   62 1  
    66   20   63 1  
    67   20   64 1  
    68   22   65 1  
    69   22   66 1  
    70   22   67 1  
    71   23   68 1  
    72   24   69 1  
    73   27   70 1  
    74   29   71 1  
    75   30   72 1  
    76   31   73 1  
    77   32   74 1  
    78   33   75 1  
    79   34   76 1  
    80   34   77 1  
    81   36   78 1  
    82   36   79 1  
    83   36   80 1  
    84   37   81 1  
    85   37   82 1  
    86   37   83 1  
    87   38   84 1  
    88   40   85 1  
    89   42   86 1  
@<TRIPOS>SUBSTRUCTURE
     1 NAA         1

