### 
### Created by X-TOOL on Mon Sep 10 21:12:51 2018
### 

@<TRIPOS>MOLECULE
1hkm_ligand
   80    83     1     0     0
SMALL
GAST_HUCK


@<TRIPOS>ATOM
      1 C1          0.9970   61.4230   -2.2450 C.3       1 NAA         0.1854
      2 C2         -0.4980   61.6380   -2.5360 C.3       1 NAA         0.1210
      3 C3         -1.2290   60.3050   -2.6830 C.3       1 NAA         0.1111
      4 C4         -0.4830   59.3850   -3.6690 C.3       1 NAA         0.1116
      5 C5          0.9700   59.2130   -3.2130 C.3       1 NAA         0.1130
      6 C6          1.7170   58.2780   -4.1720 C.3       1 NAA         0.0730
      7 C7         -1.2340   63.7460   -1.4990 C.2       1 NAA         0.1733
      8 C8         -1.8510   64.3870   -0.2500 C.3       1 NAA         0.0257
      9 N2         -1.0850   62.4200   -1.4390 N.am      1 NAA        -0.2766
     10 O3         -1.3140   59.6850   -1.4080 O.3       1 NAA        -0.3867
     11 O4         -1.1200   58.1040   -3.7350 O.3       1 NAA        -0.3865
     12 O5          1.6010   60.5190   -3.2100 O.3       1 NAA        -0.3408
     13 O6          3.0210   57.9890   -3.6520 O.3       1 NAA        -0.3924
     14 O7         -0.9290   64.4310   -2.4760 O.2       1 NAA        -0.3974
     15 C1          5.4840   63.7600   -0.9810 C.3       1 NAA         0.1853
     16 C2          5.2580   62.2630   -1.2560 C.3       1 NAA         0.1210
     17 C3          4.0070   62.0410   -2.1310 C.3       1 NAA         0.1114
     18 C4          2.7910   62.7900   -1.5310 C.3       1 NAA         0.1181
     19 C5          3.1600   64.2630   -1.3560 C.3       1 NAA         0.1134
     20 C6          1.9670   65.0290   -0.7860 C.3       1 NAA         0.0730
     21 C7          7.3140   60.9160   -1.3110 C.2       1 NAA         0.1733
     22 C8          8.5520   60.4170   -2.0540 C.3       1 NAA         0.0257
     23 N2          6.4520   61.7270   -1.9380 N.am      1 NAA        -0.2766
     24 O3          4.2560   62.5040   -3.4610 O.3       1 NAA        -0.3867
     25 O4          1.6240   62.6980   -2.3520 O.3       1 NAA        -0.3404
     26 O5          4.2860   64.3590   -0.4310 O.3       1 NAA        -0.3408
     27 O6          2.3290   66.3970   -0.6230 O.3       1 NAA        -0.3924
     28 O7          7.1320   60.5830   -0.1380 O.2       1 NAA        -0.3974
     29 C1          8.7940   66.6060    1.2020 C.3       1 ALI         0.1121
     30 C2          7.4200   67.3200    1.1560 C.3       1 ALI         0.0617
     31 C3          6.3880   66.2290    0.8630 C.3       1 ALI         0.0935
     32 C4          7.1310   65.1950    0.0180 C.3       1 ALI         0.0961
     33 C5          8.4580   65.1770    0.7670 C.3       1 ALI         0.0440
     34 C6          9.5920   64.5070   -0.0160 C.3       1 ALI         0.0523
     35 C7          8.2880   67.4100    3.2590 C.2       1 ALI         0.2344
     36 C8          9.4440   67.3110    5.2600 C.2       1 ALI         0.0178
     37 N2          7.2880   67.8280    2.5110 N.2       1 ALI        -0.3234
     38 N7          8.4220   67.7550    4.5450 N.2       1 ALI        -0.2096
     39 O3          5.3080   66.7820    0.1060 O.3       1 ALI        -0.3884
     40 O4          6.5510   63.8720   -0.0350 O.3       1 ALI        -0.3427
     41 O6          9.8250   65.2140   -1.2280 O.3       1 ALI        -0.3945
     42 O7          9.1870   66.6130    2.6140 O.3       1 ALI        -0.2639
     43 H1          1.1260   61.0163   -1.2311 H         1 NAA         0.0935
     44 H2         -0.6013   62.2010   -3.4753 H         1 NAA         0.0633
     45 H3         -2.2438   60.4897   -3.0652 H         1 NAA         0.0645
     46 H4         -0.4964   59.8443   -4.6684 H         1 NAA         0.0647
     47 H5          0.9918   58.7878   -2.1988 H         1 NAA         0.0647
     48 H6          1.8151   58.7645   -5.1537 H         1 NAA         0.0584
     49 H7          1.1520   57.3407   -4.2821 H         1 NAA         0.0584
     50 H8         -1.9313   65.4741   -0.3974 H         1 NAA         0.0467
     51 H9         -1.2120   64.1814    0.6214 H         1 NAA         0.0467
     52 H10        -2.8523   63.9654   -0.0781 H         1 NAA         0.0467
     53 H11        -1.3849   61.9402   -0.6145 H         1 NAA         0.1857
     54 H12        -1.7852   58.8639   -1.4872 H         1 NAA         0.2100
     55 H13        -2.0203   58.2135   -4.0178 H         1 NAA         0.2100
     56 H14         3.5096   58.7982   -3.5576 H         1 NAA         0.2095
     57 H15         5.7545   64.2738   -1.9153 H         1 NAA         0.0935
     58 H16         5.1191   61.7383   -0.2992 H         1 NAA         0.0633
     59 H17         3.7815   60.9649   -2.1634 H         1 NAA         0.0645
     60 H18         2.5613   62.3532   -0.5479 H         1 NAA         0.0650
     61 H19         3.4416   64.6921   -2.3289 H         1 NAA         0.0647
     62 H20         1.6869   64.6031    0.1887 H         1 NAA         0.0584
     63 H21         1.1152   64.9529   -1.4779 H         1 NAA         0.0584
     64 H22         9.1411   59.7674   -1.3900 H         1 NAA         0.0467
     65 H23         9.1647   61.2763   -2.3642 H         1 NAA         0.0467
     66 H24         8.2417   59.8480   -2.9428 H         1 NAA         0.0467
     67 H25         6.6216   61.9754   -2.8917 H         1 NAA         0.1857
     68 H26         3.4906   62.3422   -3.9999 H         1 NAA         0.2100
     69 H27         1.5908   66.8787   -0.2687 H         1 NAA         0.2095
     70 H28         9.5531   67.0751    0.5588 H         1 NAA         0.0682
     71 H29         7.3747   68.1248    0.4075 H         1 NAA         0.0429
     72 H30         6.0094   65.7815    1.7938 H         1 NAA         0.0628
     73 H31         7.2529   65.5581   -1.0131 H         1 NAA         0.0627
     74 H32         8.3123   64.5798    1.6792 H         1 NAA         0.0379
     75 H33         9.3121   63.4686   -0.2472 H         1 NAA         0.0562
     76 H34        10.5086   64.5130    0.5920 H         1 NAA         0.0562
     77 H35         9.5427   67.5985    6.3057 H         1 NAA         0.1241
     78 H36        10.1860   66.6583    4.8024 H         1 NAA         0.1241
     79 H37         4.7090   66.0878   -0.1426 H         1 NAA         0.2099
     80 H38        10.5287   64.7937   -1.7082 H         1 NAA         0.2094
@<TRIPOS>BOND
     1    1    2 1  
     2    1   12 1  
     3   25    1 1  
     4    2    3 1  
     5    2    9 1  
     6    3    4 1  
     7    3   10 1  
     8    5    4 1  
     9    4   11 1  
    10    5    6 1  
    11   12    5 1  
    12    6   13 1  
    13    7    8 1  
    14    9    7 am 
    15    7   14 2  
    16   15   16 1  
    17   15   26 1  
    18   40   15 1  
    19   16   17 1  
    20   16   23 1  
    21   17   18 1  
    22   17   24 1  
    23   19   18 1  
    24   18   25 1  
    25   19   20 1  
    26   26   19 1  
    27   20   27 1  
    28   21   22 1  
    29   23   21 am 
    30   21   28 2  
    31   29   30 1  
    32   33   29 1  
    33   29   42 1  
    34   31   30 1  
    35   30   37 1  
    36   32   31 1  
    37   31   39 1  
    38   32   33 1  
    39   32   40 1  
    40   33   34 1  
    41   34   41 1  
    42   37   35 2  
    43   35   38 1  
    44   35   42 1  
    45   38   36 2  
    46    1   43 1  
    47    2   44 1  
    48    3   45 1  
    49    4   46 1  
    50    5   47 1  
    51    6   48 1  
    52    6   49 1  
    53    8   50 1  
    54    8   51 1  
    55    8   52 1  
    56    9   53 1  
    57   10   54 1  
    58   11   55 1  
    59   13   56 1  
    60   15   57 1  
    61   16   58 1  
    62   17   59 1  
    63   18   60 1  
    64   19   61 1  
    65   20   62 1  
    66   20   63 1  
    67   22   64 1  
    68   22   65 1  
    69   22   66 1  
    70   23   67 1  
    71   24   68 1  
    72   27   69 1  
    73   29   70 1  
    74   30   71 1  
    75   31   72 1  
    76   32   73 1  
    77   33   74 1  
    78   34   75 1  
    79   34   76 1  
    80   36   77 1  
    81   36   78 1  
    82   39   79 1  
    83   41   80 1  
@<TRIPOS>SUBSTRUCTURE
     1 NAA         1

