### 
### Created by X-TOOL on Mon Sep 10 21:12:47 2018
### 

@<TRIPOS>MOLECULE
1hlf_ligand
   29    30     1     0     0
SMALL
GAST_HUCK


@<TRIPOS>ATOM
      1 C1         33.9140   22.7470   27.8160 C.3       1 GL4         0.2789
      2 C2         33.9590   23.1090   26.2940 C.3       1 GL4         0.1443
      3 O2         34.0230   24.5300   26.1100 O.3       1 GL4        -0.3849
      4 C3         32.6840   22.5620   25.5680 C.3       1 GL4         0.1135
      5 O3         32.8740   22.7290   24.1700 O.3       1 GL4        -0.3866
      6 C4         32.4650   21.0480   25.8970 C.3       1 GL4         0.1115
      7 O4         31.2700   20.6050   25.3200 O.3       1 GL4        -0.3865
      8 C5         32.4260   20.8230   27.4610 C.3       1 GL4         0.1114
      9 C6         32.3420   19.3660   27.8420 C.3       1 GL4         0.0728
     10 O6         33.4520   18.6970   27.2850 O.3       1 GL4        -0.3924
     11 O5         33.6310   21.3600   28.0650 O.3       1 GL4        -0.3373
     12 N2         35.2420   23.1450   28.3750 N.am      1 GL4        -0.2430
     13 C8         35.0320   24.0940   29.2830 C.2       1 GL4         0.1661
     14 S8         36.3110   24.7340   30.1710 S.2       1 GL4        -0.2959
     15 N1         33.7580   24.4600   29.4730 N.am      1 GL4        -0.1917
     16 C7         33.0470   23.6770   28.6300 C.2       1 GL4         0.2924
     17 O7         31.8210   23.7490   28.6050 O.2       1 GL4        -0.3241
     18 H1         34.8530   22.6491   25.8477 H         1 GL4         0.0660
     19 H2         34.0494   24.7270   25.1811 H         1 GL4         0.2099
     20 H3         31.8020   23.1330   25.8935 H         1 GL4         0.0646
     21 H4         32.9941   23.6511   23.9758 H         1 GL4         0.2100
     22 H5         33.3003   20.4689   25.4764 H         1 GL4         0.0647
     23 H6         30.5450   21.1105   25.6683 H         1 GL4         0.2100
     24 H7         31.5477   21.3475   27.8653 H         1 GL4         0.0644
     25 H8         31.4108   18.9320   27.4490 H         1 GL4         0.0584
     26 H9         32.3593   19.2665   28.9373 H         1 GL4         0.0584
     27 H10        34.2532   19.0774   27.6255 H         1 GL4         0.2095
     28 H11        36.1294   22.7657   28.1132 H         1 GL4         0.1991
     29 H12        33.4096   25.1575   30.0992 H         1 GL4         0.2366
@<TRIPOS>BOND
     1    1    2 1  
     2    1   11 1  
     3    1   12 1  
     4    1   16 1  
     5    2    3 1  
     6    2    4 1  
     7    4    5 1  
     8    4    6 1  
     9    6    7 1  
    10    6    8 1  
    11    8    9 1  
    12    8   11 1  
    13    9   10 1  
    14   12   13 am 
    15   13   14 2  
    16   13   15 am 
    17   15   16 am 
    18   16   17 2  
    19    2   18 1  
    20    3   19 1  
    21    4   20 1  
    22    5   21 1  
    23    6   22 1  
    24    7   23 1  
    25    8   24 1  
    26    9   25 1  
    27    9   26 1  
    28   10   27 1  
    29   12   28 1  
    30   15   29 1  
@<TRIPOS>SUBSTRUCTURE
     1 GL4         1

