### 
### Created by X-TOOL on Mon Sep 10 21:12:48 2018
### 

@<TRIPOS>MOLECULE
1hlk_ligand
   36    38     1     0     0
SMALL
GAST_HUCK


@<TRIPOS>ATOM
      1 C1         -8.3060  -25.2130   16.7850 C.ar      1 113         0.1204
      2 C2         -8.7670  -26.2360   15.9550 C.ar      1 113         0.0040
      3 C3         -8.9710  -27.5030   16.4990 C.ar      1 113         0.1282
      4 C4         -8.6530  -27.7580   17.8470 C.ar      1 113         0.0511
      5 C5         -7.8630  -26.8110   18.5520 C.ar      1 113         0.0410
      6 C6         -7.7670  -25.4980   18.0380 C.ar      1 113         0.1279
      7 O8         -9.4950  -28.4970   15.7000 O.3       1 113        -0.2489
      8 C9         -9.6990  -29.7770   16.1730 C.2       1 113         0.1233
      9 C10        -9.5880  -30.0980   17.4850 C.2       1 113         0.0694
     10 C11        -9.1800  -29.0070   18.4390 C.2       1 113         0.1032
     11 C12       -10.0500  -30.7850   15.1080 C.3       1 113         0.0453
     12 C13        -9.7150  -32.2130   15.5650 C.3       1 113         0.0750
     13 O14       -10.1670  -32.4430   16.9040 O.3       1 113        -0.3410
     14 C15        -9.8730  -31.5190   17.9600 C.3       1 113         0.1798
     15 O16        -7.1640  -24.4370   18.6950 O.3       1 113        -0.3374
     16 O17        -8.3700  -23.8850   16.4150 O.3       1 113        -0.3343
     17 C18        -7.1330  -27.1420   19.7910 C.2       1 113         0.0561
     18 O19        -7.7360  -26.7540   20.9260 O.co2     1 113        -0.5640
     19 O20        -8.8770  -32.0280   18.8460 O.3       1 113        -0.3498
     20 C22        -7.6540  -32.5450   18.3690 C.3       1 113         0.0408
     21 C26       -10.3340  -33.2880   14.6620 C.3       1 113        -0.0360
     22 O30        -6.0750  -27.7270   19.7820 O.co2     1 113        -0.5640
     23 O31        -9.3190  -29.1950   19.6260 O.2       1 113        -0.4271
     24 H1         -8.9630  -26.0484   14.9055 H         1 113         0.0488
     25 H2         -9.4795  -30.5569   14.1956 H         1 113         0.0522
     26 H3        -11.1268  -30.7201   14.8930 H         1 113         0.0522
     27 H4         -8.6212  -32.3262   15.5377 H         1 113         0.0625
     28 H5        -10.7949  -31.4470   18.5557 H         1 113         0.0969
     29 H6         -7.2220  -23.6575   18.1551 H         1 113         0.2435
     30 H7         -7.4939  -23.5175   16.4053 H         1 113         0.2463
     31 H8         -7.0409  -32.8793   19.2189 H         1 113         0.0526
     32 H9         -7.1162  -31.7619   17.8146 H         1 113         0.0526
     33 H10        -7.8514  -33.3969   17.7017 H         1 113         0.0526
     34 H11       -10.0603  -34.2848   15.0381 H         1 113         0.0257
     35 H12        -9.9565  -33.1669   13.6359 H         1 113         0.0257
     36 H13       -11.4290  -33.1831   14.6646 H         1 113         0.0257
@<TRIPOS>BOND
     1    1    2 ar 
     2    1    6 ar 
     3    1   16 1  
     4    2    3 ar 
     5    3    4 ar 
     6    3    7 1  
     7    4    5 ar 
     8    4   10 1  
     9    5    6 ar 
    10    5   17 1  
    11    6   15 1  
    12    7    8 1  
    13    8    9 2  
    14    8   11 1  
    15    9   10 1  
    16    9   14 1  
    17   10   23 2  
    18   11   12 1  
    19   12   13 1  
    20   12   21 1  
    21   13   14 1  
    22   14   19 1  
    23   17   18 ar 
    24   17   22 ar 
    25   19   20 1  
    26    2   24 1  
    27   11   25 1  
    28   11   26 1  
    29   12   27 1  
    30   14   28 1  
    31   15   29 1  
    32   16   30 1  
    33   20   31 1  
    34   20   32 1  
    35   20   33 1  
    36   21   34 1  
    37   21   35 1  
    38   21   36 1  
@<TRIPOS>SUBSTRUCTURE
     1 113         1

