### 
### Created by X-TOOL on Mon Sep 10 21:12:45 2018
### 

@<TRIPOS>MOLECULE
1hmr_ligand
   55    54     1     0     0
SMALL
GAST_HUCK


@<TRIPOS>ATOM
      1 CA         19.6520   33.3030   53.6450 C.3       1 ELA         0.0002
      2 C          18.9220   33.3060   52.3730 C.2       1 ELA         0.0348
      3 O          19.0110   34.3390   51.7310 O.co2     1 ELA        -0.5690
      4 OXT        18.2470   32.3160   52.1830 O.co2     1 ELA        -0.5690
      5 C3         20.8140   34.2570   53.8010 C.3       1 ELA        -0.0414
      6 C4         21.6480   34.1750   54.9910 C.3       1 ELA        -0.0516
      7 C5         22.7520   35.1680   55.1020 C.3       1 ELA        -0.0530
      8 C6         23.1580   35.5220   56.5270 C.3       1 ELA        -0.0531
      9 C7         23.7060   34.4290   57.3550 C.3       1 ELA        -0.0531
     10 C8         23.3620   34.6370   58.8590 C.3       1 ELA        -0.0531
     11 C9         21.9690   34.3740   59.1720 C.3       1 ELA        -0.0531
     12 C10        21.5120   34.6910   60.4940 C.3       1 ELA        -0.0531
     13 C11        20.0350   34.5380   60.6500 C.3       1 ELA        -0.0531
     14 C12        19.2440   34.8740   59.4230 C.3       1 ELA        -0.0531
     15 C13        17.9140   34.2150   59.3610 C.3       1 ELA        -0.0531
     16 C14        17.1850   34.3750   58.0750 C.3       1 ELA        -0.0531
     17 C15        17.0930   35.7700   57.5950 C.3       1 ELA        -0.0531
     18 C16        16.2220   35.9090   56.3530 C.3       1 ELA        -0.0533
     19 C17        15.9690   37.3870   56.0920 C.3       1 ELA        -0.0559
     20 C18        17.1450   38.1910   56.5440 C.3       1 ELA        -0.0653
     21 H1         18.9271   33.5386   54.4381 H         1 ELA         0.0430
     22 H2         20.0422   32.2856   53.7952 H         1 ELA         0.0430
     23 H3         20.3996   35.2754   53.7692 H         1 ELA         0.0283
     24 H4         21.4745   34.1026   52.9350 H         1 ELA         0.0283
     25 H5         22.0983   33.1717   55.0143 H         1 ELA         0.0266
     26 H6         20.9942   34.3040   55.8661 H         1 ELA         0.0266
     27 H7         22.4317   36.0922   54.5988 H         1 ELA         0.0265
     28 H8         23.6335   34.7572   54.5880 H         1 ELA         0.0265
     29 H9         22.2666   35.9126   57.0396 H         1 ELA         0.0265
     30 H10        23.9226   36.3106   56.4688 H         1 ELA         0.0265
     31 H11        24.7993   34.4028   57.2371 H         1 ELA         0.0265
     32 H12        23.2778   33.4736   57.0176 H         1 ELA         0.0265
     33 H13        23.5894   35.6790   59.1281 H         1 ELA         0.0265
     34 H14        23.9881   33.9587   59.4573 H         1 ELA         0.0265
     35 H15        21.7934   33.2999   59.0124 H         1 ELA         0.0265
     36 H16        21.3580   34.9545   58.4651 H         1 ELA         0.0265
     37 H17        21.7826   35.7333   60.7185 H         1 ELA         0.0265
     38 H18        22.0118   34.0204   61.2085 H         1 ELA         0.0265
     39 H19        19.7048   35.2002   61.4639 H         1 ELA         0.0265
     40 H20        19.8241   33.4926   60.9194 H         1 ELA         0.0265
     41 H21        19.8247   34.5641   58.5417 H         1 ELA         0.0265
     42 H22        19.0917   35.9631   59.3974 H         1 ELA         0.0265
     43 H23        17.2881   34.6368   60.1612 H         1 ELA         0.0265
     44 H24        18.0592   33.1391   59.5377 H         1 ELA         0.0265
     45 H25        16.1636   33.9889   58.2081 H         1 ELA         0.0265
     46 H26        17.7046   33.7811   57.3087 H         1 ELA         0.0265
     47 H27        18.1056   36.1274   57.3563 H         1 ELA         0.0265
     48 H28        16.6646   36.3902   58.3962 H         1 ELA         0.0265
     49 H29        15.2639   35.3931   56.5141 H         1 ELA         0.0265
     50 H30        16.7372   35.4643   55.4889 H         1 ELA         0.0265
     51 H31        15.0738   37.7072   56.6452 H         1 ELA         0.0263
     52 H32        15.8109   37.5455   55.0150 H         1 ELA         0.0263
     53 H33        16.9554   39.2575   56.3525 H         1 ELA         0.0230
     54 H34        18.0411   37.8728   55.9910 H         1 ELA         0.0230
     55 H35        17.3040   38.0345   57.6211 H         1 ELA         0.0230
@<TRIPOS>BOND
     1    1    5 1  
     2    1    2 1  
     3    2    4 ar 
     4    2    3 ar 
     5    5    6 1  
     6    6    7 1  
     7    7    8 1  
     8    8    9 1  
     9    9   10 1  
    10   10   11 1  
    11   11   12 1  
    12   12   13 1  
    13   13   14 1  
    14   14   15 1  
    15   15   16 1  
    16   16   17 1  
    17   17   18 1  
    18   18   19 1  
    19   19   20 1  
    20    1   21 1  
    21    1   22 1  
    22    5   23 1  
    23    5   24 1  
    24    6   25 1  
    25    6   26 1  
    26    7   27 1  
    27    7   28 1  
    28    8   29 1  
    29    8   30 1  
    30    9   31 1  
    31    9   32 1  
    32   10   33 1  
    33   10   34 1  
    34   11   35 1  
    35   11   36 1  
    36   12   37 1  
    37   12   38 1  
    38   13   39 1  
    39   13   40 1  
    40   14   41 1  
    41   14   42 1  
    42   15   43 1  
    43   15   44 1  
    44   16   45 1  
    45   16   46 1  
    46   17   47 1  
    47   17   48 1  
    48   18   49 1  
    49   18   50 1  
    50   19   51 1  
    51   19   52 1  
    52   20   53 1  
    53   20   54 1  
    54   20   55 1  
@<TRIPOS>SUBSTRUCTURE
     1 ELA         1

