### 
### Created by X-TOOL on Mon Sep 10 21:12:45 2018
### 

@<TRIPOS>MOLECULE
1hms_ligand
   53    52     1     0     0
SMALL
GAST_HUCK


@<TRIPOS>ATOM
      1 CA         20.0020   33.2660   53.5770 C.3       1 OLA         0.0002
      2 C          19.0300   33.3380   52.4920 C.2       1 OLA         0.0348
      3 O          19.0140   34.4160   51.9100 O.co2     1 OLA        -0.5690
      4 OXT        18.3210   32.3340   52.4110 O.co2     1 OLA        -0.5690
      5 C3         20.6000   34.5030   54.1250 C.3       1 OLA        -0.0414
      6 C4         21.8030   34.2750   55.0600 C.3       1 OLA        -0.0515
      7 C5         22.3410   35.6020   55.5610 C.3       1 OLA        -0.0528
      8 C6         23.5690   35.5340   56.4000 C.3       1 OLA        -0.0515
      9 C7         23.5370   34.5310   57.5140 C.3       1 OLA        -0.0464
     10 C8         22.6930   35.0320   58.6870 C.3       1 OLA        -0.0365
     11 C9         22.6420   34.0520   59.8040 C.2       1 OLA        -0.0987
     12 C10        21.7210   34.1380   60.8600 C.2       1 OLA        -0.0987
     13 C11        20.7780   35.2360   61.0590 C.3       1 OLA        -0.0365
     14 C12        19.3360   34.9930   60.9030 C.3       1 OLA        -0.0464
     15 C13        18.9230   34.6100   59.4960 C.3       1 OLA        -0.0515
     16 C14        17.5060   34.0840   59.4840 C.3       1 OLA        -0.0529
     17 C15        16.7310   34.5080   58.2780 C.3       1 OLA        -0.0531
     18 C16        17.3270   35.6680   57.5660 C.3       1 OLA        -0.0533
     19 C17        16.3040   36.4260   56.7320 C.3       1 OLA        -0.0559
     20 C18        16.7280   37.8920   56.6480 C.3       1 OLA        -0.0653
     21 H1         19.5033   32.7574   54.4152 H         1 OLA         0.0430
     22 H2         20.8349   32.6455   53.2148 H         1 OLA         0.0430
     23 H3         19.8230   35.0383   54.6903 H         1 OLA         0.0283
     24 H4         20.9342   35.1252   53.2817 H         1 OLA         0.0283
     25 H5         22.5955   33.7471   54.5092 H         1 OLA         0.0266
     26 H6         21.4846   33.6654   55.9185 H         1 OLA         0.0266
     27 H7         21.5515   36.0812   56.1585 H         1 OLA         0.0265
     28 H8         22.5670   36.2262   54.6839 H         1 OLA         0.0265
     29 H9         23.7315   36.5274   56.8435 H         1 OLA         0.0267
     30 H10        24.4146   35.2831   55.7428 H         1 OLA         0.0267
     31 H11        24.5643   34.3499   57.8631 H         1 OLA         0.0285
     32 H12        23.1064   33.5912   57.1381 H         1 OLA         0.0285
     33 H13        21.6685   35.2175   58.3320 H         1 OLA         0.0388
     34 H14        23.1275   35.9712   59.0599 H         1 OLA         0.0388
     35 H15        23.3535   33.2276   59.8029 H         1 OLA         0.0450
     36 H16        21.7085   33.3255   61.5850 H         1 OLA         0.0450
     37 H17        21.0487   36.0236   60.3404 H         1 OLA         0.0388
     38 H18        20.9304   35.6062   62.0835 H         1 OLA         0.0388
     39 H19        18.7984   35.9109   61.1832 H         1 OLA         0.0285
     40 H20        19.0474   34.1772   61.5821 H         1 OLA         0.0285
     41 H21        19.6015   33.8304   59.1193 H         1 OLA         0.0267
     42 H22        18.9856   35.4957   58.8467 H         1 OLA         0.0267
     43 H23        16.9878   34.4546   60.3807 H         1 OLA         0.0265
     44 H24        17.5408   32.9848   59.5086 H         1 OLA         0.0265
     45 H25        15.7139   34.7804   58.5962 H         1 OLA         0.0265
     46 H26        16.6819   33.6593   57.5800 H         1 OLA         0.0265
     47 H27        18.1237   35.3029   56.9012 H         1 OLA         0.0265
     48 H28        17.7561   36.3560   58.3093 H         1 OLA         0.0265
     49 H29        15.3139   36.3539   57.2057 H         1 OLA         0.0263
     50 H30        16.2589   35.9955   55.7208 H         1 OLA         0.0263
     51 H31        15.9960   38.4515   56.0471 H         1 OLA         0.0230
     52 H32        17.7191   37.9606   56.1757 H         1 OLA         0.0230
     53 H33        16.7740   38.3190   57.6607 H         1 OLA         0.0230
@<TRIPOS>BOND
     1    1    5 1  
     2    1    2 1  
     3    2    4 ar 
     4    2    3 ar 
     5    5    6 1  
     6    6    7 1  
     7    7    8 1  
     8    8    9 1  
     9    9   10 1  
    10   10   11 1  
    11   11   12 2  
    12   12   13 1  
    13   13   14 1  
    14   14   15 1  
    15   15   16 1  
    16   16   17 1  
    17   17   18 1  
    18   18   19 1  
    19   19   20 1  
    20    1   21 1  
    21    1   22 1  
    22    5   23 1  
    23    5   24 1  
    24    6   25 1  
    25    6   26 1  
    26    7   27 1  
    27    7   28 1  
    28    8   29 1  
    29    8   30 1  
    30    9   31 1  
    31    9   32 1  
    32   10   33 1  
    33   10   34 1  
    34   11   35 1  
    35   12   36 1  
    36   13   37 1  
    37   13   38 1  
    38   14   39 1  
    39   14   40 1  
    40   15   41 1  
    41   15   42 1  
    42   16   43 1  
    43   16   44 1  
    44   17   45 1  
    45   17   46 1  
    46   18   47 1  
    47   18   48 1  
    48   19   49 1  
    49   19   50 1  
    50   20   51 1  
    51   20   52 1  
    52   20   53 1  
@<TRIPOS>SUBSTRUCTURE
     1 OLA         1

