### 
### Created by X-TOOL on Mon Sep 10 21:12:45 2018
### 

@<TRIPOS>MOLECULE
1hmt_ligand
   55    54     1     0     0
SMALL
GAST_HUCK


@<TRIPOS>ATOM
      1 C1         19.0590   33.2400   52.2470 C.2       1 STE         0.0348
      2 O          18.3830   32.2470   52.0740 O.co2     1 STE        -0.5690
      3 OXT        18.9990   34.2520   51.5700 O.co2     1 STE        -0.5690
      4 C2         20.0590   33.1550   53.3190 C.3       1 STE         0.0002
      5 C3         20.9320   34.2630   53.6670 C.3       1 STE        -0.0414
      6 C4         21.9560   34.0810   54.7900 C.3       1 STE        -0.0516
      7 C5         22.3340   35.3820   55.4400 C.3       1 STE        -0.0530
      8 C6         23.5340   35.3320   56.3390 C.3       1 STE        -0.0531
      9 C7         23.4170   34.4510   57.5450 C.3       1 STE        -0.0531
     10 C8         22.3120   34.8870   58.5100 C.3       1 STE        -0.0531
     11 C9         22.1180   33.9400   59.6400 C.3       1 STE        -0.0531
     12 C10        21.2370   34.5290   60.7410 C.3       1 STE        -0.0531
     13 C11        19.9250   35.0230   60.1590 C.3       1 STE        -0.0531
     14 C12        19.1840   34.0080   59.3690 C.3       1 STE        -0.0531
     15 C13        17.7050   34.0940   59.3940 C.3       1 STE        -0.0531
     16 C14        17.0020   34.8930   58.3830 C.3       1 STE        -0.0531
     17 C15        17.0780   34.3350   56.9710 C.3       1 STE        -0.0531
     18 C16        16.7800   35.4660   55.9700 C.3       1 STE        -0.0533
     19 C17        16.0990   36.5930   56.7190 C.3       1 STE        -0.0559
     20 C18        16.7040   37.9390   56.3390 C.3       1 STE        -0.0653
     21 H1         20.7209   32.3178   53.0525 H         1 STE         0.0430
     22 H2         19.5032   32.9058   54.2350 H         1 STE         0.0430
     23 H3         20.2846   35.1043   53.9553 H         1 STE         0.0283
     24 H4         21.4940   34.5272   52.7591 H         1 STE         0.0283
     25 H5         22.8622   33.6201   54.3700 H         1 STE         0.0266
     26 H6         21.5271   33.4163   55.5543 H         1 STE         0.0266
     27 H7         21.4765   35.7231   56.0386 H         1 STE         0.0265
     28 H8         22.5384   36.1120   54.6429 H         1 STE         0.0265
     29 H9         23.7351   36.3554   56.6886 H         1 STE         0.0265
     30 H10        24.3862   34.9741   55.7427 H         1 STE         0.0265
     31 H11        24.3763   34.4669   58.0831 H         1 STE         0.0265
     32 H12        23.2020   33.4260   57.2087 H         1 STE         0.0265
     33 H13        21.3680   34.9625   57.9504 H         1 STE         0.0265
     34 H14        22.5747   35.8731   58.9207 H         1 STE         0.0265
     35 H15        23.1008   33.6920   60.0673 H         1 STE         0.0265
     36 H16        21.6428   33.0246   59.2577 H         1 STE         0.0265
     37 H17        21.7631   35.3706   61.2153 H         1 STE         0.0265
     38 H18        21.0308   33.7542   61.4941 H         1 STE         0.0265
     39 H19        20.1403   35.8794   59.5031 H         1 STE         0.0265
     40 H20        19.2816   35.3496   60.9893 H         1 STE         0.0265
     41 H21        19.4665   33.0163   59.7521 H         1 STE         0.0265
     42 H22        19.5054   34.1016   58.3212 H         1 STE         0.0265
     43 H23        17.4268   34.5062   60.3751 H         1 STE         0.0265
     44 H24        17.3249   33.0654   59.3073 H         1 STE         0.0265
     45 H25        17.4402   35.9019   58.3773 H         1 STE         0.0265
     46 H26        15.9422   34.9552   58.6708 H         1 STE         0.0265
     47 H27        16.3365   33.5314   56.8513 H         1 STE         0.0265
     48 H28        18.0857   33.9346   56.7861 H         1 STE         0.0265
     49 H29        16.1179   35.0942   55.1742 H         1 STE         0.0265
     50 H30        17.7193   35.8278   55.5263 H         1 STE         0.0265
     51 H31        16.2234   36.4342   57.8003 H         1 STE         0.0263
     52 H32        15.0276   36.5960   56.4697 H         1 STE         0.0263
     53 H33        16.1943   38.7400   56.8945 H         1 STE         0.0230
     54 H34        16.5793   38.1052   55.2588 H         1 STE         0.0230
     55 H35        17.7751   37.9434   56.5895 H         1 STE         0.0230
@<TRIPOS>BOND
     1    1    4 1  
     2    1    3 ar 
     3    1    2 ar 
     4    4    5 1  
     5    5    6 1  
     6    6    7 1  
     7    7    8 1  
     8    8    9 1  
     9    9   10 1  
    10   10   11 1  
    11   11   12 1  
    12   12   13 1  
    13   13   14 1  
    14   14   15 1  
    15   15   16 1  
    16   16   17 1  
    17   17   18 1  
    18   18   19 1  
    19   19   20 1  
    20    4   21 1  
    21    4   22 1  
    22    5   23 1  
    23    5   24 1  
    24    6   25 1  
    25    6   26 1  
    26    7   27 1  
    27    7   28 1  
    28    8   29 1  
    29    8   30 1  
    30    9   31 1  
    31    9   32 1  
    32   10   33 1  
    33   10   34 1  
    34   11   35 1  
    35   11   36 1  
    36   12   37 1  
    37   12   38 1  
    38   13   39 1  
    39   13   40 1  
    40   14   41 1  
    41   14   42 1  
    42   15   43 1  
    43   15   44 1  
    44   16   45 1  
    45   16   46 1  
    46   17   47 1  
    47   17   48 1  
    48   18   49 1  
    49   18   50 1  
    50   19   51 1  
    51   19   52 1  
    52   20   53 1  
    53   20   54 1  
    54   20   55 1  
@<TRIPOS>SUBSTRUCTURE
     1 STE         1

