### 
### Created by X-TOOL on Mon Sep 10 21:12:48 2018
### 

@<TRIPOS>MOLECULE
1hp5_ligand
   27    28     1     0     0
SMALL
GAST_HUCK


@<TRIPOS>ATOM
      1 C1         -5.8060   65.5590    9.9600 C.3       1 NGT         0.1382
      2 C2         -6.5790   66.4760    8.9660 C.3       1 NGT         0.0652
      3 C3         -5.6020   67.2660    8.0300 C.3       1 NGT         0.0954
      4 C4         -4.3700   67.8090    8.7750 C.3       1 NGT         0.1101
      5 C5         -3.6630   66.6680    9.5380 C.3       1 NGT         0.1116
      6 C6         -2.4400   67.1200   10.3320 C.3       1 NGT         0.0730
      7 C7         -7.0380   64.4310    8.0570 C.2       1 NGT         0.0728
      8 C8         -7.6950   63.3350    7.2510 C.3       1 NGT         0.0106
      9 N2         -7.4390   65.6240    8.1550 N.2       1 NGT        -0.3502
     10 S1         -5.5870   64.0020    8.9670 S.3       1 NGT        -0.0199
     11 O3         -6.3010   68.3240    7.3920 O.3       1 NGT        -0.3883
     12 O4         -3.4830   68.3940    7.8380 O.3       1 NGT        -0.3866
     13 O5         -4.6030   66.0340   10.4880 O.3       1 NGT        -0.3535
     14 O6         -1.7400   65.9970   10.8690 O.3       1 NGT        -0.3924
     15 H1         -6.4605   65.3541   10.8200 H         1 NGT         0.0761
     16 H2         -7.1914   67.1930    9.5324 H         1 NGT         0.0431
     17 H3         -5.2443   66.5722    7.2550 H         1 NGT         0.0628
     18 H4         -4.6917   68.5754    9.4955 H         1 NGT         0.0646
     19 H5         -3.3385   65.9198    8.7998 H         1 NGT         0.0646
     20 H6         -2.7660   67.7699   11.1574 H         1 NGT         0.0584
     21 H7         -1.7660   67.6809    9.6678 H         1 NGT         0.0584
     22 H8         -8.5810   63.7377    6.7383 H         1 NGT         0.0521
     23 H9         -7.9994   62.5184    7.9222 H         1 NGT         0.0521
     24 H10        -6.9831   62.9509    6.5056 H         1 NGT         0.0521
     25 H11        -7.0576   67.9732    6.9372 H         1 NGT         0.2099
     26 H12        -2.7281   68.7459    8.2951 H         1 NGT         0.2100
     27 H13        -0.9843   66.3006   11.3581 H         1 NGT         0.2095
@<TRIPOS>BOND
     1    2    1 1  
     2    1   10 1  
     3    1   13 1  
     4    2    3 1  
     5    9    2 1  
     6    3    4 1  
     7    3   11 1  
     8    4    5 1  
     9    4   12 1  
    10    5    6 1  
    11   13    5 1  
    12    6   14 1  
    13    7    8 1  
    14    7    9 2  
    15    7   10 1  
    16    1   15 1  
    17    2   16 1  
    18    3   17 1  
    19    4   18 1  
    20    5   19 1  
    21    6   20 1  
    22    6   21 1  
    23    8   22 1  
    24    8   23 1  
    25    8   24 1  
    26   11   25 1  
    27   12   26 1  
    28   14   27 1  
@<TRIPOS>SUBSTRUCTURE
     1 NGT         1

