### 
### Created by X-TOOL on Mon Sep 10 21:12:45 2018
### 

@<TRIPOS>MOLECULE
1hpo_ligand
   64    68     1     0     0
SMALL
GAST_HUCK


@<TRIPOS>ATOM
      1 CA         13.6440   23.0550    5.7580 C.2       1 UNI         0.0471
      2 CA2        12.4620   22.4300    6.2330 C.2       1 UNI         0.2395
      3 OA2        12.5220   21.3710    6.7520 O.2       1 UNI        -0.4069
      4 OA3        11.2320   22.9530    6.0750 O.3       1 UNI        -0.2137
      5 CA4        11.1730   24.1780    5.3710 C.2       1 UNI         0.1251
      6 CA5        12.2830   24.8340    4.8700 C.2       1 UNI         0.0148
      7 CA6        13.5440   24.2550    5.0790 C.2       1 UNI         0.0807
      8 OA6        14.7200   24.8210    4.7030 O.3       1 UNI        -0.3393
      9 CB1        15.3970   21.2880    5.0660 C.ar      1 UNI        -0.0527
     10 CB2        15.1540   21.3690    3.6670 C.ar      1 UNI        -0.0767
     11 CB3        15.5220   20.2830    2.8340 C.ar      1 UNI        -0.0843
     12 CB4        16.1290   19.1410    3.3570 C.ar      1 UNI        -0.0526
     13 CB5        16.3510   19.0480    4.7530 C.ar      1 UNI         0.0556
     14 CB6        15.9960   20.1240    5.5870 C.ar      1 UNI        -0.0441
     15 CG1        15.0550   22.4530    5.9880 C.3       1 UNI         0.0115
     16 CG2        15.5140   22.2140    7.4440 C.3       1 UNI        -0.0260
     17 CG3        15.4090   23.3410    8.4740 C.3       1 UNI        -0.0467
     18 CG4        16.7720   22.9310    7.9340 C.3       1 UNI        -0.0467
     19 CD1         9.7560   24.7210    5.2000 C.3       1 UNI         0.0205
     20 CD2         9.0920   24.5760    3.8190 C.3       1 UNI        -0.0375
     21 CD3         9.8770   23.8900    2.7510 C.3       1 UNI        -0.0506
     22 CD4        11.0450   24.6630    2.1980 C.3       1 UNI        -0.0520
     23 CD5        11.2850   26.0690    2.7980 C.3       1 UNI        -0.0495
     24 CD6        12.1320   26.1330    4.1020 C.3       1 UNI        -0.0311
     25 N          16.9830   17.9420    5.3080 N.am      1 UNI        -0.1880
     26 S          18.5350   18.0980    5.4930 S.o2      1 UNI         0.0930
     27 O1         18.8700   16.6830    5.5030 O.2       1 UNI        -0.1436
     28 O2         18.9170   18.8390    4.2920 O.2       1 UNI        -0.1436
     29 CZ1        19.1800   18.9950    6.8380 C.ar      1 UNI         0.1226
     30 CZ2        19.1190   18.5400    8.1890 C.ar      1 UNI        -0.0234
     31 CZ3        19.6730   19.3400    9.2240 C.ar      1 UNI        -0.0251
     32 CZ4        20.2810   20.5780    8.8980 C.ar      1 UNI         0.0957
     33 CZ5        20.3310   21.0200    7.5600 C.ar      1 UNI        -0.0251
     34 CZ6        19.7850   20.2350    6.5360 C.ar      1 UNI        -0.0234
     35 CZ7        20.8740   21.3540    9.8890 C.1       1 UNI         0.1004
     36 NZ7        21.3780   22.0050   10.7220 N.1       1 UNI        -0.3284
     37 H1         14.7218   24.9491    3.7616 H         1 UNI         0.2481
     38 H2         14.6919   22.2527    3.2420 H         1 UNI         0.0415
     39 H3         15.3279   20.3409    1.7691 H         1 UNI         0.0555
     40 H4         16.4282   18.3317    2.7008 H         1 UNI         0.0425
     41 H5         16.1872   20.0561    6.6519 H         1 UNI         0.0414
     42 H6         15.7207   23.2598    5.6477 H         1 UNI         0.0525
     43 H7         15.3082   21.1742    7.7379 H         1 UNI         0.0338
     44 H8         15.1383   23.1108    9.5150 H         1 UNI         0.0271
     45 H9         14.9726   24.3091    8.1870 H         1 UNI         0.0271
     46 H10        17.3198   23.6035    7.2575 H         1 UNI         0.0271
     47 H11        17.4855   22.4052    8.5855 H         1 UNI         0.0271
     48 H12         9.7853   25.7944    5.4385 H         1 UNI         0.0503
     49 H13         9.1157   24.2010    5.9277 H         1 UNI         0.0503
     50 H14         8.1591   24.0101    3.9587 H         1 UNI         0.0294
     51 H15         8.8564   25.5879    3.4577 H         1 UNI         0.0294
     52 H16        10.2626   22.9479    3.1678 H         1 UNI         0.0267
     53 H17         9.1931   23.6698    1.9181 H         1 UNI         0.0267
     54 H18        11.9529   24.0662    2.3699 H         1 UNI         0.0266
     55 H19        10.8847   24.7835    1.1164 H         1 UNI         0.0266
     56 H20        11.7983   26.6741    2.0362 H         1 UNI         0.0277
     57 H21        10.3018   26.5113    3.0162 H         1 UNI         0.0277
     58 H22        13.1396   26.4807    3.8303 H         1 UNI         0.0335
     59 H23        11.6596   26.8658    4.7727 H         1 UNI         0.0335
     60 H24        16.4890   17.1126    5.5689 H         1 UNI         0.2161
     61 H25        18.6529   17.5900    8.4241 H         1 UNI         0.0661
     62 H26        19.6310   19.0063   10.2545 H         1 UNI         0.0719
     63 H27        20.7938   21.9711    7.3227 H         1 UNI         0.0719
     64 H28        19.8270   20.5802    5.5093 H         1 UNI         0.0661
@<TRIPOS>BOND
     1    1   15 1  
     2    1    7 2  
     3    1    2 1  
     4    2    4 1  
     5    2    3 2  
     6    4    5 1  
     7    5   19 1  
     8    5    6 2  
     9    6   24 1  
    10    6    7 1  
    11    7    8 1  
    12   24   23 1  
    13   23   22 1  
    14   22   21 1  
    15   21   20 1  
    16   20   19 1  
    17   15   16 1  
    18   15    9 1  
    19    9   14 ar 
    20    9   10 ar 
    21   10   11 ar 
    22   11   12 ar 
    23   12   13 ar 
    24   13   25 1  
    25   13   14 ar 
    26   25   26 am 
    27   26   29 1  
    28   26   28 2  
    29   26   27 2  
    30   29   34 ar 
    31   29   30 ar 
    32   30   31 ar 
    33   31   32 ar 
    34   32   35 1  
    35   32   33 ar 
    36   33   34 ar 
    37   35   36 3  
    38   16   18 1  
    39   16   17 1  
    40   17   18 1  
    41    8   37 1  
    42   10   38 1  
    43   11   39 1  
    44   12   40 1  
    45   14   41 1  
    46   15   42 1  
    47   16   43 1  
    48   17   44 1  
    49   17   45 1  
    50   18   46 1  
    51   18   47 1  
    52   19   48 1  
    53   19   49 1  
    54   20   50 1  
    55   20   51 1  
    56   21   52 1  
    57   21   53 1  
    58   22   54 1  
    59   22   55 1  
    60   23   56 1  
    61   23   57 1  
    62   24   58 1  
    63   24   59 1  
    64   25   60 1  
    65   30   61 1  
    66   31   62 1  
    67   33   63 1  
    68   34   64 1  
@<TRIPOS>SUBSTRUCTURE
     1 UNI         1

