### 
### Created by X-TOOL on Mon Sep 10 21:12:45 2018
### 

@<TRIPOS>MOLECULE
1hps_ligand
   93    96     1     0     0
SMALL
GAST_HUCK


@<TRIPOS>ATOM
      1 C1         -7.7930   17.1890   22.4770 C.2       1 RUN         0.1464
      2 O2         -7.8030   18.3960   22.1770 O.2       1 RUN        -0.3870
      3 C3         -7.6940   16.1280   21.3860 C.3       1 RUN         0.0273
      4 C4         -6.5780   16.4880   20.4110 C.3       1 RUN        -0.0476
      5 C5         -9.0400   16.1410   20.6690 C.3       1 RUN        -0.0476
      6 N1'        -7.9670   17.8950   24.6830 N.pl3     1 RUN        -0.2491
      7 C2'        -8.0280   17.2320   25.8340 C.2       1 RUN         0.1250
      8 N3'        -7.9880   15.9030   25.7660 N.2       1 RUN        -0.3227
      9 C4'        -7.8960   15.6560   24.4730 C.2       1 RUN        -0.0093
     10 C5'        -7.8820   16.8800   23.8270 C.2       1 RUN         0.1199
     11 C1         -8.1210   18.0950   27.1080 C.3       1 RUN         0.0502
     12 C2         -8.9090   17.4250   28.1990 C.3       1 RUN        -0.0033
     13 C3        -10.4200   17.3680   28.0950 C.3       1 RUN         0.0826
     14 O3        -10.9520   18.3750   28.9430 O.3       1 RUN        -0.3891
     15 C4        -10.9490   15.9810   28.5710 C.3       1 RUN         0.0775
     16 N5        -11.0340   16.0070   30.0190 N.am      1 RUN        -0.2775
     17 C6        -10.2110   15.2730   30.7500 C.2       1 RUN         0.2023
     18 O6         -9.3790   14.5270   30.2240 O.2       1 RUN        -0.3945
     19 C7        -10.4230   15.4430   32.2530 C.3       1 RUN         0.1350
     20 N8        -11.3190   14.3780   32.6270 N.am      1 RUN        -0.2408
     21 C9        -12.4970   14.6570   33.1870 C.2       1 RUN         0.3239
     22 O9        -12.7940   15.8340   33.3850 O.2       1 RUN        -0.3773
     23 C10        -9.0690   15.3820   33.0050 C.3       1 RUN        -0.0063
     24 C11        -9.2320   15.4490   34.5170 C.3       1 RUN        -0.0584
     25 C12        -8.2850   16.6300   32.6380 C.3       1 RUN        -0.0584
     26 CA         -6.7480   18.4180   27.7230 C.3       1 RUN         0.0003
     27 C1A        -5.6400   18.6420   26.7080 C.ar      1 RUN        -0.0402
     28 C2A        -4.6230   17.6810   26.5980 C.ar      1 RUN        -0.0601
     29 C3A        -3.6490   17.8310   25.6130 C.ar      1 RUN        -0.0686
     30 C4A        -3.6930   18.9330   24.7510 C.ar      1 RUN        -0.0687
     31 C5A        -4.7040   19.8920   24.8720 C.ar      1 RUN        -0.0686
     32 C6A        -5.6780   19.7480   25.8530 C.ar      1 RUN        -0.0601
     33 CB        -12.3350   15.6500   28.0040 C.3       1 RUN         0.0064
     34 C1B       -12.8270   14.2790   28.4010 C.ar      1 RUN        -0.0408
     35 C2B       -12.2480   13.1460   27.8290 C.ar      1 RUN        -0.0603
     36 C3B       -12.6870   11.8780   28.2140 C.ar      1 RUN        -0.0686
     37 C4B       -13.6990   11.7460   29.1660 C.ar      1 RUN        -0.0687
     38 C5B       -14.2750   12.8770   29.7340 C.ar      1 RUN        -0.0686
     39 C6B       -13.8460   14.1510   29.3580 C.ar      1 RUN        -0.0603
     40 OC        -13.4230   13.6870   33.5640 O.3       1 RUN        -0.2506
     41 CC        -12.8350   12.4060   33.8000 C.3       1 RUN         0.1113
     42 C1C       -13.7670   11.2300   33.8450 C.ar      1 RUN        -0.0130
     43 C2C       -14.7550   11.1890   34.8220 C.ar      1 RUN        -0.0578
     44 C3C       -15.5890   10.0820   34.8940 C.ar      1 RUN        -0.0685
     45 C4C       -15.4310    9.0330   33.9910 C.ar      1 RUN        -0.0687
     46 C5C       -14.4460    9.0860   33.0160 C.ar      1 RUN        -0.0685
     47 C6C       -13.6060   10.1860   32.9380 C.ar      1 RUN        -0.0578
     48 H1         -7.4994   15.1383   21.8249 H         1 RUN         0.0510
     49 H2         -6.5131   15.7184   19.6277 H         1 RUN         0.0256
     50 H3         -5.6218   16.5421   20.9520 H         1 RUN         0.0256
     51 H4         -6.7942   17.4630   19.9500 H         1 RUN         0.0256
     52 H5         -9.8371   15.8802   21.3808 H         1 RUN         0.0256
     53 H6         -9.0260   15.4075   19.8494 H         1 RUN         0.0256
     54 H7         -9.2278   17.1446   20.2598 H         1 RUN         0.0256
     55 H8         -7.9815   18.9093   24.5043 H         1 RUN         0.2375
     56 H9         -7.8414   14.6750   24.0033 H         1 RUN         0.0544
     57 H10        -8.6182   19.0373   26.8344 H         1 RUN         0.0570
     58 H11        -8.6715   17.9507   29.1356 H         1 RUN         0.0324
     59 H12        -8.5523   16.3863   28.2609 H         1 RUN         0.0324
     60 H13       -10.7297   17.5450   27.0544 H         1 RUN         0.0620
     61 H14       -10.6351   19.2250   28.6608 H         1 RUN         0.2099
     62 H15       -10.2409   15.2011   28.2543 H         1 RUN         0.0604
     63 H16       -11.7181   16.5826   30.4669 H         1 RUN         0.1857
     64 H17       -10.8957   16.4142   32.4609 H         1 RUN         0.0802
     65 H18       -11.0566   13.4265   32.4661 H         1 RUN         0.1899
     66 H19        -8.5255   14.4691   32.7202 H         1 RUN         0.0342
     67 H20        -8.2424   15.4017   34.9949 H         1 RUN         0.0234
     68 H21        -9.8445   14.6012   34.8577 H         1 RUN         0.0234
     69 H22        -9.7268   16.3924   34.7910 H         1 RUN         0.0234
     70 H23        -8.1244   16.6554   31.5501 H         1 RUN         0.0234
     71 H24        -7.3126   16.6165   33.1519 H         1 RUN         0.0234
     72 H25        -8.8502   17.5220   32.9461 H         1 RUN         0.0234
     73 H26        -6.4557   17.5786   28.3710 H         1 RUN         0.0458
     74 H27        -6.8489   19.3308   28.3285 H         1 RUN         0.0458
     75 H28        -4.5956   16.8320   27.2715 H         1 RUN         0.0557
     76 H29        -2.8587   17.0957   25.5144 H         1 RUN         0.0599
     77 H30        -2.9366   19.0442   23.9826 H         1 RUN         0.0559
     78 H31        -4.7278   20.7446   24.2030 H         1 RUN         0.0599
     79 H32        -6.4627   20.4889   25.9548 H         1 RUN         0.0557
     80 H33       -12.2848   15.6992   26.9063 H         1 RUN         0.0449
     81 H34       -13.0516   16.3989   28.3723 H         1 RUN         0.0449
     82 H35       -11.4618   13.2496   27.0899 H         1 RUN         0.0557
     83 H36       -12.2410   10.9941   27.7726 H         1 RUN         0.0599
     84 H37       -14.0367   10.7598   29.4632 H         1 RUN         0.0559
     85 H38       -15.0611   12.7688   30.4725 H         1 RUN         0.0599
     86 H39       -14.2952   15.0327   29.8006 H         1 RUN         0.0557
     87 H40       -12.3122   12.4531   34.7667 H         1 RUN         0.0776
     88 H41       -12.1058   12.2218   32.9973 H         1 RUN         0.0776
     89 H42       -14.8725   12.0111   35.5187 H         1 RUN         0.0557
     90 H43       -16.3624   10.0337   35.6520 H         1 RUN         0.0599
     91 H44       -16.0828    8.1689   34.0508 H         1 RUN         0.0559
     92 H45       -14.3330    8.2671   32.3148 H         1 RUN         0.0599
     93 H46       -12.8328   10.2328   32.1797 H         1 RUN         0.0557
@<TRIPOS>BOND
     1    1   10 1  
     2    1    3 1  
     3    1    2 2  
     4    3    5 1  
     5    3    4 1  
     6   10    9 2  
     7   10    6 1  
     8    6    7 1  
     9    7   11 1  
    10    7    8 2  
    11    8    9 1  
    12   11   26 1  
    13   11   12 1  
    14   12   13 1  
    15   13   15 1  
    16   13   14 1  
    17   15   33 1  
    18   15   16 1  
    19   16   17 am 
    20   17   19 1  
    21   17   18 2  
    22   19   23 1  
    23   19   20 1  
    24   20   21 am 
    25   21   40 1  
    26   21   22 2  
    27   40   41 1  
    28   41   42 1  
    29   42   47 ar 
    30   42   43 ar 
    31   43   44 ar 
    32   44   45 ar 
    33   45   46 ar 
    34   46   47 ar 
    35   23   25 1  
    36   23   24 1  
    37   33   34 1  
    38   34   39 ar 
    39   34   35 ar 
    40   35   36 ar 
    41   36   37 ar 
    42   37   38 ar 
    43   38   39 ar 
    44   26   27 1  
    45   27   32 ar 
    46   27   28 ar 
    47   28   29 ar 
    48   29   30 ar 
    49   30   31 ar 
    50   31   32 ar 
    51    3   48 1  
    52    4   49 1  
    53    4   50 1  
    54    4   51 1  
    55    5   52 1  
    56    5   53 1  
    57    5   54 1  
    58    6   55 1  
    59    9   56 1  
    60   11   57 1  
    61   12   58 1  
    62   12   59 1  
    63   13   60 1  
    64   14   61 1  
    65   15   62 1  
    66   16   63 1  
    67   19   64 1  
    68   20   65 1  
    69   23   66 1  
    70   24   67 1  
    71   24   68 1  
    72   24   69 1  
    73   25   70 1  
    74   25   71 1  
    75   25   72 1  
    76   26   73 1  
    77   26   74 1  
    78   28   75 1  
    79   29   76 1  
    80   30   77 1  
    81   31   78 1  
    82   32   79 1  
    83   33   80 1  
    84   33   81 1  
    85   35   82 1  
    86   36   83 1  
    87   37   84 1  
    88   38   85 1  
    89   39   86 1  
    90   41   87 1  
    91   41   88 1  
    92   43   89 1  
    93   44   90 1  
    94   45   91 1  
    95   46   92 1  
    96   47   93 1  
@<TRIPOS>SUBSTRUCTURE
     1 RUN         1

