### 
### Created by X-TOOL on Mon Sep 10 21:12:45 2018
### 

@<TRIPOS>MOLECULE
1hpv_ligand
   70    72     1     0     0
SMALL
GAST_HUCK


@<TRIPOS>ATOM
      1 C1         11.1690   14.9770    2.4450 C.3       1 478         0.0782
      2 C2          9.1760   16.2240    2.9970 C.3       1 478         0.0034
      3 C3         10.1490   15.7020    5.9990 C.2       1 478         0.3203
      4 C4         10.1130   15.1490    3.5480 C.3       1 478         0.1134
      5 C5         10.9600   16.6620    8.1450 C.3       1 478         0.0807
      6 C6         10.3870   18.1190    8.4840 C.3       1 478         0.0967
      7 C7         12.4160   16.2780    8.6520 C.3       1 478         0.0064
      8 C8         12.8310   14.9140    8.1700 C.ar      1 478        -0.0408
      9 C9         13.6360   14.8250    6.9780 C.ar      1 478        -0.0603
     10 C10        12.2990   13.7060    8.7650 C.ar      1 478        -0.0603
     11 C11        13.8910   13.5660    6.3310 C.ar      1 478        -0.0686
     12 C12        12.5740   12.4340    8.1160 C.ar      1 478        -0.0686
     13 C13        13.3710   12.3570    6.8870 C.ar      1 478        -0.0687
     14 C14         9.6950   18.4110    9.8910 C.3       1 478         0.0578
     15 C15         7.3810   17.6970    9.1700 C.3       1 478         0.0319
     16 C16         6.1860   18.4060    9.7900 C.3       1 478        -0.0296
     17 C17         8.8320   16.3810   12.8860 C.ar      1 478         0.0949
     18 C18        10.0730   16.3630   13.6040 C.ar      1 478        -0.0471
     19 C19        10.0920   16.6920   14.9920 C.ar      1 478        -0.0429
     20 C20         8.8650   17.0540   15.6200 C.ar      1 478         0.0353
     21 C21         7.6520   17.0060   14.9260 C.ar      1 478        -0.0429
     22 C22         7.6390   16.6690   13.5550 C.ar      1 478        -0.0471
     23 C23         6.1460   19.9370    9.6140 C.3       1 478        -0.0612
     24 C24         4.8220   17.6950    9.7310 C.3       1 478        -0.0612
     25 C25         9.7510   16.6260    1.6330 C.3       1 478         0.0505
     26 N1         10.9400   16.4720    6.7130 N.am      1 478        -0.2550
     27 N2          8.5160   17.5800   10.2280 N.am      1 478        -0.2327
     28 N3          8.8400   17.3220   16.8980 N.pl3     1 478        -0.3369
     29 O1         10.7260   15.6620    4.7310 O.3       1 478        -0.2582
     30 O2          9.0810   15.3130    6.2870 O.2       1 478        -0.3775
     31 O3         11.4320   19.0300    8.4660 O.3       1 478        -0.3877
     32 O4         10.0510   15.5110   10.8470 O.2       1 478        -0.1518
     33 O5          7.7070   15.1600   11.0710 O.2       1 478        -0.1518
     34 O6         11.0530   16.0820    1.5150 O.3       1 478        -0.3768
     35 S1          8.7650   16.1120   11.2000 S.o2      1 478         0.0648
     36 H1         10.9998   14.0280    1.9152 H         1 478         0.0589
     37 H2         12.1741   14.9733    2.8920 H         1 478         0.0589
     38 H3          8.1592   15.8212    2.8796 H         1 478         0.0316
     39 H4          9.1510   17.0920    3.6723 H         1 478         0.0316
     40 H5          9.5849   14.2069    3.7564 H         1 478         0.0671
     41 H6         10.2665   15.9423    8.6044 H         1 478         0.0604
     42 H7          9.6591   18.3611    7.6956 H         1 478         0.0634
     43 H8         12.4240   16.2851    9.7519 H         1 478         0.0449
     44 H9         13.1327   17.0226    8.2752 H         1 478         0.0449
     45 H10        14.0601   15.7300    6.5583 H         1 478         0.0557
     46 H11        11.7092   13.7488    9.6735 H         1 478         0.0557
     47 H12        14.4784   13.5344    5.4205 H         1 478         0.0599
     48 H13        12.1810   11.5219    8.5504 H         1 478         0.0599
     49 H14        13.5616   11.4023    6.4103 H         1 478         0.0559
     50 H15         9.3753   19.4635    9.8951 H         1 478         0.0504
     51 H16        10.4505   18.2542   10.6750 H         1 478         0.0504
     52 H17         7.7425   18.2736    8.3058 H         1 478         0.0480
     53 H18         7.0811   16.6913    8.8404 H         1 478         0.0480
     54 H19         6.4229   18.3171   10.8605 H         1 478         0.0311
     55 H20        10.9929   16.1005   13.0942 H         1 478         0.0602
     56 H21        11.0177   16.6672   15.5556 H         1 478         0.0515
     57 H22         6.7234   17.2271   15.4397 H         1 478         0.0515
     58 H23         6.6981   16.6334   13.0179 H         1 478         0.0602
     59 H24         5.2442   20.3384   10.0993 H         1 478         0.0233
     60 H25         6.1255   20.1825    8.5419 H         1 478         0.0233
     61 H26         7.0397   20.3826   10.0752 H         1 478         0.0233
     62 H27         4.9663   16.6130    9.8672 H         1 478         0.0233
     63 H28         4.3529   17.8822    8.7538 H         1 478         0.0233
     64 H29         4.1721   18.0816   10.5298 H         1 478         0.0233
     65 H30         9.1105   16.2324    0.8300 H         1 478         0.0561
     66 H31         9.7991   17.7225    1.5595 H         1 478         0.0561
     67 H32        11.6176   16.9955    6.1965 H         1 478         0.1873
     68 H33         9.7193   17.3634   17.4328 H         1 478         0.1719
     69 H34         7.9410   17.4920   17.3711 H         1 478         0.1719
     70 H35        11.0833   19.9114    8.5292 H         1 478         0.2100
@<TRIPOS>BOND
     1    4    1 1  
     2    1   34 1  
     3   29    4 1  
     4    5    6 1  
     5    5    7 1  
     6   26    5 1  
     7    6   14 1  
     8    7    8 1  
     9    8    9 ar 
    10    8   10 ar 
    11    9   11 ar 
    12   10   12 ar 
    13   11   13 ar 
    14   12   13 ar 
    15   14   27 1  
    16   15   16 1  
    17   27   15 1  
    18   16   23 1  
    19   16   24 1  
    20   17   18 ar 
    21   17   22 ar 
    22   18   19 ar 
    23   19   20 ar 
    24   21   20 ar 
    25   22   21 ar 
    26   35   33 2  
    27   35   32 2  
    28   27   35 am 
    29   35   17 1  
    30   34   25 1  
    31    6   31 1  
    32    3   30 2  
    33    3   29 1  
    34   20   28 1  
    35    3   26 am 
    36   25    2 1  
    37    4    2 1  
    38    1   36 1  
    39    1   37 1  
    40    2   38 1  
    41    2   39 1  
    42    4   40 1  
    43    5   41 1  
    44    6   42 1  
    45    7   43 1  
    46    7   44 1  
    47    9   45 1  
    48   10   46 1  
    49   11   47 1  
    50   12   48 1  
    51   13   49 1  
    52   14   50 1  
    53   14   51 1  
    54   15   52 1  
    55   15   53 1  
    56   16   54 1  
    57   18   55 1  
    58   19   56 1  
    59   21   57 1  
    60   22   58 1  
    61   23   59 1  
    62   23   60 1  
    63   23   61 1  
    64   24   62 1  
    65   24   63 1  
    66   24   64 1  
    67   25   65 1  
    68   25   66 1  
    69   26   67 1  
    70   28   68 1  
    71   28   69 1  
    72   31   70 1  
@<TRIPOS>SUBSTRUCTURE
     1 478         1

