### 
### Created by X-TOOL on Mon Sep 10 21:12:48 2018
### 

@<TRIPOS>MOLECULE
1hqf_ligand
   28    27     1     0     0
SMALL
GAST_HUCK


@<TRIPOS>ATOM
      1 N          -4.2480   48.0810    7.9230 N.4       1 HAR         0.2327
      2 CA         -5.1970   48.0230    9.1120 C.3       1 HAR         0.0284
      3 C          -4.6180   48.8270   10.4040 C.2       1 HAR         0.0844
      4 O          -5.3280   48.8050   11.5130 O.co2     1 HAR        -0.5643
      5 CB         -5.4730   46.5470    9.5030 C.3       1 HAR         0.0045
      6 CG         -4.3290   45.9790   10.2730 C.3       1 HAR        -0.0240
      7 CD         -3.9270   44.6480    9.7560 C.3       1 HAR         0.0284
      8 NE         -2.7760   44.1750   10.5100 N.pl3     1 HAR        -0.3084
      9 CZ         -2.1420   43.0370   10.2990 C.cat     1 HAR         0.2806
     10 NH1        -2.5270   42.1930    9.3310 N.pl3     1 HAR        -0.0589
     11 NH2        -1.0920   42.7350   11.0480 N.pl3     1 HAR        -0.3213
     12 OH1        -1.8020   41.0730    9.1570 O.3       1 HAR        -0.1070
     13 OXT        -3.4570   49.4330   10.2930 O.co2     1 HAR        -0.5643
     14 H1         -4.6466   47.5718    7.1498 H         1 HAR         0.2010
     15 H2         -3.3646   47.6678    8.1777 H         1 HAR         0.2010
     16 H3         -4.1045   49.0418    7.6542 H         1 HAR         0.2010
     17 H4         -6.1467   48.4909    8.8136 H         1 HAR         0.1024
     18 H5         -5.6219   45.9538    8.5887 H         1 HAR         0.0339
     19 H6         -6.3815   46.5018   10.1215 H         1 HAR         0.0339
     20 H7         -4.6245   45.8774   11.3277 H         1 HAR         0.0291
     21 H8         -3.4723   46.6647   10.1966 H         1 HAR         0.0291
     22 H9         -3.6620   44.7304    8.6916 H         1 HAR         0.0548
     23 H10        -4.7606   43.9398    9.8726 H         1 HAR         0.0548
     24 H11        -2.4279   44.7770   11.2698 H         1 HAR         0.1886
     25 H12        -3.3477   42.3946    8.7421 H         1 HAR         0.3884
     26 H13        -0.7894   43.3777   11.7938 H         1 HAR         0.1856
     27 H14        -0.5781   41.8574   10.8846 H         1 HAR         0.1856
     28 H15        -2.1742   40.5633    8.4469 H         1 HAR         0.4002
@<TRIPOS>BOND
     1    1    2 1  
     2    2    3 1  
     3    2    5 1  
     4    3    4 ar 
     5    3   13 ar 
     6    5    6 1  
     7    6    7 1  
     8    7    8 1  
     9    8    9 ar 
    10    9   10 ar 
    11    9   11 ar 
    12   10   12 1  
    13    1   14 1  
    14    1   15 1  
    15    1   16 1  
    16    2   17 1  
    17    5   18 1  
    18    5   19 1  
    19    6   20 1  
    20    6   21 1  
    21    7   22 1  
    22    7   23 1  
    23    8   24 1  
    24   10   25 1  
    25   11   26 1  
    26   11   27 1  
    27   12   28 1  
@<TRIPOS>SUBSTRUCTURE
     1 HAR         1

