### 
### Created by X-TOOL on Mon Sep 10 21:12:48 2018
### 

@<TRIPOS>MOLECULE
1hqg_ligand
   22    21     1     0     0
SMALL
GAST_HUCK


@<TRIPOS>ATOM
      1 N          38.3360   21.3750   -6.6450 N.4       1 ORN         0.2327
      2 CA         38.3270   21.1860   -8.1300 C.3       1 ORN         0.0285
      3 CB         37.1650   21.9990   -8.7040 C.3       1 ORN         0.0072
      4 CG         37.1180   23.4270   -8.2780 C.3       1 ORN        -0.0060
      5 CD         36.0610   24.2230   -8.9920 C.3       1 ORN        -0.0351
      6 NE         36.0380   25.6340   -8.5570 N.4       1 ORN         0.2185
      7 C          39.6380   21.7130   -8.7660 C.2       1 ORN         0.0844
      8 O          40.5320   22.2300   -7.9660 O.co2     1 ORN        -0.5643
      9 OXT        39.8790   21.6530  -10.0680 O.co2     1 ORN        -0.5643
     10 H1         37.4743   21.0249   -6.2565 H         1 ORN         0.2010
     11 H2         38.4266   22.3560   -6.4317 H         1 ORN         0.2010
     12 H3         39.1131   20.8713   -6.2469 H         1 ORN         0.2010
     13 H4         38.2016   20.1193   -8.3676 H         1 ORN         0.1024
     14 H5         36.2262   21.5192   -8.3902 H         1 ORN         0.0340
     15 H6         37.2410   21.9735   -9.8011 H         1 ORN         0.0340
     16 H7         38.0973   23.8849   -8.4809 H         1 ORN         0.0320
     17 H8         36.9130   23.4632   -7.1979 H         1 ORN         0.0320
     18 H9         35.0787   23.7727   -8.7864 H         1 ORN         0.0813
     19 H10        36.2611   24.1886  -10.0731 H         1 ORN         0.0813
     20 H11        35.3175   26.1287   -9.0592 H         1 ORN         0.1994
     21 H12        36.9321   26.0588   -8.7470 H         1 ORN         0.1994
     22 H13        35.8486   25.6777   -7.5679 H         1 ORN         0.1994
@<TRIPOS>BOND
     1    1    2 1  
     2    2    3 1  
     3    2    7 1  
     4    3    4 1  
     5    4    5 1  
     6    5    6 1  
     7    7    8 ar 
     8    7    9 ar 
     9    1   10 1  
    10    1   11 1  
    11    1   12 1  
    12    2   13 1  
    13    3   14 1  
    14    3   15 1  
    15    4   16 1  
    16    4   17 1  
    17    5   18 1  
    18    5   19 1  
    19    6   20 1  
    20    6   21 1  
    21    6   22 1  
@<TRIPOS>SUBSTRUCTURE
     1 ORN         1

