### 
### Created by X-TOOL on Mon Sep 10 21:12:48 2018
### 

@<TRIPOS>MOLECULE
1hqh_ligand
   23    22     1     0     0
SMALL
GAST_HUCK


@<TRIPOS>ATOM
      1 N          39.5370   22.0430   -8.5130 N.4       1 NNH         0.2328
      2 CA         39.1960   22.0230   -9.9270 C.3       1 NNH         0.0324
      3 C          40.2570   22.7020  -10.7920 C.2       1 NNH         0.0846
      4 O          41.2790   23.2280  -10.4010 O.co2     1 NNH        -0.5643
      5 CB         37.8010   22.6840  -10.0910 C.3       1 NNH         0.0438
      6 CG         37.5870   24.1490   -9.6050 C.3       1 NNH         0.0957
      7 ND         36.5210   24.7740  -10.4350 N.pl3     1 NNH        -0.2353
      8 CE         35.9520   26.0240  -10.3390 C.cat     1 NNH         0.3901
      9 NH1        36.3810   26.9340   -9.3140 N.2       1 NNH         0.0176
     10 NH2        34.9900   26.4680  -11.1660 N.pl3     1 NNH        -0.2481
     11 OH1        35.8620   28.1180   -9.2130 O.2       1 NNH        -0.1904
     12 OXT        39.9310   22.6390  -12.0910 O.co2     1 NNH        -0.5643
     13 H1         38.8100   21.5854   -7.9856 H         1 NNH         0.2010
     14 H2         39.6271   22.9977   -8.2025 H         1 NNH         0.2010
     15 H3         40.4101   21.5597   -8.3710 H         1 NNH         0.2010
     16 H4         39.1245   20.9744  -10.2515 H         1 NNH         0.1026
     17 H5         37.0826   22.0565   -9.5431 H         1 NNH         0.0382
     18 H6         37.5612   22.6642  -11.1643 H         1 NNH         0.0382
     19 H7         38.5229   24.7164   -9.7152 H         1 NNH         0.0800
     20 H8         37.2811   24.1480   -8.5484 H         1 NNH         0.0800
     21 H9         36.1543   24.1830  -11.1947 H         1 NNH         0.3228
     22 H10        34.6025   27.4145  -11.0441 H         1 NNH         0.3203
     23 H11        34.6402   25.8617  -11.9216 H         1 NNH         0.3203
@<TRIPOS>BOND
     1    1    2 1  
     2    2    3 1  
     3    2    5 1  
     4    3    4 ar 
     5    3   12 ar 
     6    5    6 1  
     7    6    7 1  
     8    7    8 ar 
     9    8    9 ar 
    10    8   10 ar 
    11    9   11 2  
    12    1   13 1  
    13    1   14 1  
    14    1   15 1  
    15    2   16 1  
    16    5   17 1  
    17    5   18 1  
    18    6   19 1  
    19    6   20 1  
    20    7   21 1  
    21   10   22 1  
    22   10   23 1  
@<TRIPOS>SUBSTRUCTURE
     1 NNH         1

