### 
### Created by X-TOOL on Mon Sep 10 21:12:45 2018
### 

@<TRIPOS>MOLECULE
1hrn_ligand
   85    87     1     0     0
SMALL
GAST_HUCK


@<TRIPOS>ATOM
      1 C1         37.2660   60.5560   45.4540 C.3       1 03D         0.0852
      2 C2         38.0350   59.4050   46.1530 C.3       1 03D         0.0906
      3 C3         37.2880   58.9560   47.4240 C.3       1 03D         0.0094
      4 C1'        37.8250   57.5240   47.8780 C.ar      1 03D        -0.0405
      5 C2'        38.5940   57.4120   48.9840 C.ar      1 03D        -0.0603
      6 C3'        39.0220   56.1740   49.4070 C.ar      1 03D        -0.0686
      7 C4'        38.6480   55.0620   48.7560 C.ar      1 03D        -0.0687
      8 C5'        37.8760   55.1620   47.6640 C.ar      1 03D        -0.0686
      9 C6'        37.4370   56.3670   47.2250 C.ar      1 03D        -0.0603
     10 O1         37.0550   61.5190   46.4760 O.3       1 03D        -0.3889
     11 O2         39.2980   59.9210   46.5790 O.3       1 03D        -0.3872
     12 C1         36.0200   60.9110   42.6980 C.2       1 03D         0.1795
     13 C2         37.1200   61.8600   43.1630 C.3       1 03D         0.0513
     14 C3         38.0270   61.2020   44.2660 C.3       1 03D        -0.0045
     15 C1'        37.0240   62.8800   40.7610 C.3       1 03D        -0.0387
     16 C2'        37.7670   63.8800   39.9700 C.3       1 03D        -0.0498
     17 C3'        36.7350   64.3200   40.9160 C.3       1 03D        -0.0498
     18 C4'        37.9350   62.3300   41.8910 C.3       1 03D        -0.0303
     19 O1         36.2790   59.8820   42.1120 O.2       1 03D        -0.3968
     20 C1         32.7120   61.3470   41.5830 C.3       1 03D         0.1038
     21 C2         33.6300   60.4170   42.5220 C.3       1 03D         0.0705
     22 C3         32.7450   59.9440   43.7480 C.3       1 03D        -0.0245
     23 C1'        33.4850   58.9200   44.6630 C.3       1 03D        -0.0389
     24 C2'        32.6170   58.5890   45.9230 C.3       1 03D        -0.0501
     25 C3'        33.3850   57.5170   46.7800 C.3       1 03D        -0.0528
     26 C4'        33.5630   56.1970   45.9630 C.3       1 03D        -0.0530
     27 C5'        34.4440   56.5230   44.7310 C.3       1 03D        -0.0528
     28 C6'        33.6900   57.5680   43.8820 C.3       1 03D        -0.0501
     29 N2         34.7450   61.2400   43.0080 N.am      1 03D        -0.2811
     30 O1         32.5050   62.6400   42.1880 O.3       1 03D        -0.3869
     31 C1         33.3300   61.5620   40.1730 C.3       1 03D         0.0835
     32 C2         32.4600   62.5550   39.3510 C.3       1 03D        -0.0220
     33 C3         33.1100   62.8460   37.9900 C.3       1 03D        -0.0443
     34 C4         32.0620   63.4880   37.0740 C.3       1 03D        -0.0626
     35 C5         34.3270   63.7670   38.1090 C.3       1 03D        -0.0626
     36 O1         33.5700   60.3000   39.5330 O.3       1 03D        -0.3892
     37 H1         36.3022   60.1777   45.0826 H         1 03D         0.0622
     38 H2         38.1660   58.5584   45.4630 H         1 03D         0.0642
     39 H3         36.2102   58.8935   47.2132 H         1 03D         0.0452
     40 H4         37.4626   59.6852   48.2289 H         1 03D         0.0452
     41 H5         38.8744   58.2996   49.5394 H         1 03D         0.0557
     42 H6         39.6675   56.0967   50.2745 H         1 03D         0.0599
     43 H7         38.9679   54.0888   49.1105 H         1 03D         0.0559
     44 H8         37.5984   54.2643   47.1234 H         1 03D         0.0599
     45 H9         36.7824   56.4244   46.3629 H         1 03D         0.0557
     46 H10        36.5467   61.1287   47.1773 H         1 03D         0.2099
     47 H11        39.1574   60.6399   47.1839 H         1 03D         0.2101
     48 H12        36.6467   62.7457   43.6118 H         1 03D         0.0539
     49 H13        38.6891   61.9816   44.6707 H         1 03D         0.0318
     50 H14        38.6327   60.4197   43.7853 H         1 03D         0.0318
     51 H15        36.3113   62.1521   40.3461 H         1 03D         0.0302
     52 H16        37.5917   63.9645   38.8874 H         1 03D         0.0268
     53 H17        38.8282   64.0729   40.1858 H         1 03D         0.0268
     54 H18        37.0234   64.8420   41.8403 H         1 03D         0.0268
     55 H19        35.7869   64.7336   40.5418 H         1 03D         0.0268
     56 H20        38.5008   61.4718   41.4995 H         1 03D         0.0295
     57 H21        38.6346   63.1225   42.1951 H         1 03D         0.0295
     58 H22        31.7372   60.8514   41.4639 H         1 03D         0.0642
     59 H23        34.0079   59.5482   41.9631 H         1 03D         0.0582
     60 H24        31.8296   59.4728   43.3606 H         1 03D         0.0291
     61 H25        32.4775   60.8250   44.3499 H         1 03D         0.0291
     62 H26        34.4564   59.3344   44.9705 H         1 03D         0.0302
     63 H27        31.6427   58.1863   45.6089 H         1 03D         0.0268
     64 H28        32.4622   59.5007   46.5187 H         1 03D         0.0268
     65 H29        32.8110   57.3037   47.6938 H         1 03D         0.0265
     66 H30        34.3750   57.9115   47.0525 H         1 03D         0.0265
     67 H31        32.5817   55.8243   45.6341 H         1 03D         0.0265
     68 H32        34.0552   55.4347   46.5847 H         1 03D         0.0265
     69 H33        34.6140   55.6113   44.1396 H         1 03D         0.0265
     70 H34        35.4106   56.9330   45.0589 H         1 03D         0.0265
     71 H35        34.2689   57.7690   42.9685 H         1 03D         0.0268
     72 H36        32.7048   57.1614   43.6098 H         1 03D         0.0268
     73 H37        34.5611   62.0464   43.5700 H         1 03D         0.1855
     74 H38        33.3442   63.0666   42.3158 H         1 03D         0.2100
     75 H39        34.3118   62.0389   40.3094 H         1 03D         0.0620
     76 H40        32.3585   63.4960   39.9115 H         1 03D         0.0293
     77 H41        31.4648   62.1153   39.1894 H         1 03D         0.0293
     78 H42        33.4387   61.8937   37.5484 H         1 03D         0.0296
     79 H43        32.5136   63.7024   36.0941 H         1 03D         0.0232
     80 H44        31.7046   64.4250   37.5260 H         1 03D         0.0232
     81 H45        31.2158   62.7973   36.9444 H         1 03D         0.0232
     82 H46        35.0758   63.3019   38.7671 H         1 03D         0.0232
     83 H47        34.0157   64.7330   38.5331 H         1 03D         0.0232
     84 H48        34.7641   63.9277   37.1124 H         1 03D         0.0232
     85 H49        32.7407   59.8669   39.3684 H         1 03D         0.2099
@<TRIPOS>BOND
     1    1   10 1  
     2    1    2 1  
     3    2   11 1  
     4    2    3 1  
     5    3    4 1  
     6    4    9 ar 
     7    4    5 ar 
     8    5    6 ar 
     9    6    7 ar 
    10    8    7 ar 
    11    9    8 ar 
    12   12   19 2  
    13   12   13 1  
    14   13   18 1  
    15   13   14 1  
    16   18   15 1  
    17   15   17 1  
    18   15   16 1  
    19   16   17 1  
    20   20   30 1  
    21   21   20 1  
    22   29   21 1  
    23   21   22 1  
    24   22   23 1  
    25   23   28 1  
    26   23   24 1  
    27   24   25 1  
    28   25   26 1  
    29   27   26 1  
    30   28   27 1  
    31   31   36 1  
    32   31   32 1  
    33   32   33 1  
    34   33   35 1  
    35   33   34 1  
    36   14    1 1  
    37   20   31 1  
    38   29   12 am 
    39    1   37 1  
    40    2   38 1  
    41    3   39 1  
    42    3   40 1  
    43    5   41 1  
    44    6   42 1  
    45    7   43 1  
    46    8   44 1  
    47    9   45 1  
    48   10   46 1  
    49   11   47 1  
    50   13   48 1  
    51   14   49 1  
    52   14   50 1  
    53   15   51 1  
    54   16   52 1  
    55   16   53 1  
    56   17   54 1  
    57   17   55 1  
    58   18   56 1  
    59   18   57 1  
    60   20   58 1  
    61   21   59 1  
    62   22   60 1  
    63   22   61 1  
    64   23   62 1  
    65   24   63 1  
    66   24   64 1  
    67   25   65 1  
    68   25   66 1  
    69   26   67 1  
    70   26   68 1  
    71   27   69 1  
    72   27   70 1  
    73   28   71 1  
    74   28   72 1  
    75   29   73 1  
    76   30   74 1  
    77   31   75 1  
    78   32   76 1  
    79   32   77 1  
    80   33   78 1  
    81   34   79 1  
    82   34   80 1  
    83   34   81 1  
    84   35   82 1  
    85   35   83 1  
    86   35   84 1  
    87   36   85 1  
@<TRIPOS>SUBSTRUCTURE
     1 03D         1

