### 
### Created by X-TOOL on Mon Sep 10 21:12:48 2018
### 

@<TRIPOS>MOLECULE
1hs6_ligand
   46    46     1     0     0
SMALL
GAST_HUCK


@<TRIPOS>ATOM
      1 N2         13.7120   41.1860   63.1450 N.4       1 BES         0.2258
      2 C1         14.4500   41.7330   64.2550 C.3       1 BES         0.0291
      3 C6         13.7490   42.9390   64.8800 C.3       1 BES         0.0287
      4 C7         12.3000   42.7270   65.2830 C.ar      1 BES        -0.0374
      5 C8         11.2970   43.5710   64.7990 C.ar      1 BES        -0.0601
      6 C12        11.9340   41.7170   66.1700 C.ar      1 BES        -0.0601
      7 C9          9.9900   43.4540   65.2270 C.ar      1 BES        -0.0686
      8 C11        10.6140   41.5800   66.6000 C.ar      1 BES        -0.0686
      9 C10         9.6390   42.4510   66.1350 C.ar      1 BES        -0.0687
     10 C2         15.8810   42.0650   63.7950 C.3       1 BES         0.1881
     11 O2         16.3690   41.0040   62.9990 O.3       1 BES        -0.3664
     12 C3         16.7410   42.1560   65.0630 C.2       1 BES         0.2125
     13 O3         16.9320   41.1850   65.8030 O.2       1 BES        -0.3939
     14 N1         17.2800   43.3760   65.2500 N.am      1 BES        -0.2691
     15 C4         18.1570   43.6130   66.3900 C.3       1 BES         0.0946
     16 C13        19.5680   43.5950   65.8550 C.3       1 BES        -0.0156
     17 C14        20.6690   42.8120   66.5760 C.3       1 BES        -0.0431
     18 C15        20.2100   41.7700   67.5770 C.3       1 BES        -0.0625
     19 C16        21.6920   42.2870   65.5900 C.3       1 BES        -0.0625
     20 C5         17.8400   45.0000   67.0530 C.2       1 BES         0.0601
     21 O1         17.1600   45.8480   66.3480 O.co2     1 BES        -0.5666
     22 O4         18.2060   45.2260   68.1920 O.co2     1 BES        -0.5666
     23 H1         12.7737   40.9667   63.4408 H         1 BES         0.2001
     24 H2         14.1665   40.3470   62.8200 H         1 BES         0.2001
     25 H3         13.6794   41.8616   62.3976 H         1 BES         0.2001
     26 H4         14.5167   40.9563   65.0311 H         1 BES         0.0926
     27 H5         13.7793   43.7620   64.1508 H         1 BES         0.0484
     28 H6         14.3110   43.2263   65.7809 H         1 BES         0.0484
     29 H7         11.5508   44.3339   64.0719 H         1 BES         0.0557
     30 H8         12.6871   41.0264   66.5319 H         1 BES         0.0557
     31 H9          9.2357   44.1400   64.8589 H         1 BES         0.0599
     32 H10        10.3500   40.7932   67.2973 H         1 BES         0.0599
     33 H11         8.6136   42.3544   66.4731 H         1 BES         0.0559
     34 H12        15.9035   43.0108   63.2338 H         1 BES         0.0898
     35 H13        15.8067   40.8936   62.2412 H         1 BES         0.2136
     36 H14        17.0792   44.1168   64.6089 H         1 BES         0.1875
     37 H15        18.0267   42.8163   67.1372 H         1 BES         0.0726
     38 H16        19.9021   44.6423   65.8155 H         1 BES         0.0308
     39 H17        19.5115   43.1893   64.8341 H         1 BES         0.0308
     40 H18        21.2000   43.5609   67.1819 H         1 BES         0.0297
     41 H19        21.0873   41.2798   68.0243 H         1 BES         0.0232
     42 H20        19.5909   41.0181   67.0658 H         1 BES         0.0232
     43 H21        19.6189   42.2560   68.3672 H         1 BES         0.0232
     44 H22        21.9795   43.0913   64.8968 H         1 BES         0.0232
     45 H23        21.2583   41.4509   65.0219 H         1 BES         0.0232
     46 H24        22.5812   41.9377   66.1352 H         1 BES         0.0232
@<TRIPOS>BOND
     1    1    2 1  
     2    2    3 1  
     3    2   10 1  
     4    3    4 1  
     5    4    5 ar 
     6    4    6 ar 
     7    5    7 ar 
     8    6    8 ar 
     9    7    9 ar 
    10    8    9 ar 
    11   10   11 1  
    12   10   12 1  
    13   12   13 2  
    14   12   14 am 
    15   14   15 1  
    16   15   16 1  
    17   15   20 1  
    18   16   17 1  
    19   17   18 1  
    20   17   19 1  
    21   20   21 ar 
    22   20   22 ar 
    23    1   23 1  
    24    1   24 1  
    25    1   25 1  
    26    2   26 1  
    27    3   27 1  
    28    3   28 1  
    29    5   29 1  
    30    6   30 1  
    31    7   31 1  
    32    8   32 1  
    33    9   33 1  
    34   10   34 1  
    35   11   35 1  
    36   14   36 1  
    37   15   37 1  
    38   16   38 1  
    39   16   39 1  
    40   17   40 1  
    41   18   41 1  
    42   18   42 1  
    43   18   43 1  
    44   19   44 1  
    45   19   45 1  
    46   19   46 1  
@<TRIPOS>SUBSTRUCTURE
     1 BES         1

