### 
### Created by X-TOOL on Mon Sep 10 21:12:45 2018
### 

@<TRIPOS>MOLECULE
1hsg_ligand
   94    98     1     0     0
SMALL
GAST_HUCK


@<TRIPOS>ATOM
      1 N1          9.2800   23.7630    3.0040 N.4       1 MK1         0.2576
      2 C1          9.4980   23.9830    4.4590 C.3       1 MK1         0.0316
      3 C2         10.5910   24.9050    4.9620 C.3       1 MK1         0.1092
      4 C3         10.5910   24.8640    6.4660 C.2       1 MK1         0.2304
      5 O1         10.9370   23.8490    7.0570 O.2       1 MK1        -0.3906
      6 N2         10.1930   25.9530    7.0940 N.am      1 MK1        -0.2769
      7 C4         10.1450   26.2500    8.4900 C.3       1 MK1         0.0448
      8 C5          9.3790   27.5770    8.6410 C.3       1 MK1        -0.0396
      9 C6         11.3980   26.3470    9.0740 C.3       1 MK1        -0.0396
     10 C7          9.3640   25.2830    9.2680 C.3       1 MK1        -0.0396
     11 N3         11.8190   24.2820    4.3550 N.4       1 MK1         0.2635
     12 C8         11.7530   23.7760    2.9610 C.3       1 MK1         0.0117
     13 C9         10.4400   23.1820    2.4930 C.3       1 MK1         0.0112
     14 C10        13.0830   24.9630    4.5520 C.3       1 MK1        -0.0026
     15 C11        14.2030   24.0640    5.0780 C.3       1 MK1         0.0974
     16 O2         15.2420   24.8840    4.6340 O.3       1 MK1        -0.3864
     17 C12        14.4400   23.7610    6.5690 C.3       1 MK1        -0.0003
     18 C13        15.5730   22.8210    7.0050 C.3       1 MK1         0.0608
     19 C14        15.6440   22.6640    8.5340 C.3       1 MK1         0.0007
     20 C15        16.7330   21.7500    8.9610 C.ar      1 MK1        -0.0405
     21 C16        18.0580   21.9160    8.5530 C.ar      1 MK1        -0.0602
     22 C17        19.0370   21.0160    8.9470 C.ar      1 MK1        -0.0686
     23 C18        18.6730   19.9390    9.7580 C.ar      1 MK1        -0.0687
     24 C19        17.3470   19.7730   10.1760 C.ar      1 MK1        -0.0686
     25 C20        16.3740   20.6870    9.7720 C.ar      1 MK1        -0.0602
     26 C21        15.4470   21.4400    6.3730 C.2       1 MK1         0.1831
     27 O3         14.3670   20.8310    6.3970 O.2       1 MK1        -0.3964
     28 N4         16.5830   20.9130    5.9240 N.am      1 MK1        -0.2707
     29 C22        16.6920   19.5000    5.6040 C.3       1 MK1         0.1006
     30 C23        18.0670   18.9450    5.9360 C.3       1 MK1         0.0951
     31 O4         19.0610   19.9380    5.7290 O.3       1 MK1        -0.3857
     32 C24        18.2260   17.7260    5.0570 C.3       1 MK1         0.0085
     33 C25        17.4760   17.9040    3.7600 C.ar      1 MK1        -0.0361
     34 C26        17.5000   17.3630    2.4960 C.ar      1 MK1        -0.0667
     35 C27        16.6130   17.8720    1.5410 C.ar      1 MK1        -0.0755
     36 C28        15.7220   18.9060    1.8650 C.ar      1 MK1        -0.0754
     37 C29        15.6830   19.4790    3.1290 C.ar      1 MK1        -0.0646
     38 C30        16.5040   19.0610    4.1280 C.ar      1 MK1        -0.0133
     39 C31         8.0330   23.1000    2.6040 C.3       1 MK1         0.0087
     40 C32         6.6660   23.7390    2.8760 C.ar      1 MK1         0.0294
     41 C33         6.1580   24.8080    2.1240 C.ar      1 MK1         0.0176
     42 N5          4.9110   25.4300    2.3000 N.ar      1 MK1        -0.3042
     43 C34         4.2070   24.8390    3.3480 C.ar      1 MK1         0.0042
     44 C35         4.6540   23.7740    4.1360 C.ar      1 MK1        -0.0403
     45 C36         5.9050   23.2110    3.8970 C.ar      1 MK1        -0.0354
     46 H1          9.2186   24.6815    2.5934 H         1 MK1         0.2056
     47 H2          9.6996   22.9941    4.8964 H         1 MK1         0.0899
     48 H3          8.5516   24.3751    4.8596 H         1 MK1         0.0899
     49 H4         10.4557   25.9399    4.6146 H         1 MK1         0.1155
     50 H5          9.8736   26.6889    6.4970 H         1 MK1         0.1859
     51 H6          9.3176   27.8458    9.7059 H         1 MK1         0.0254
     52 H7          8.3640   27.4631    8.2325 H         1 MK1         0.0254
     53 H8          9.9081   28.3703    8.0926 H         1 MK1         0.0254
     54 H9         11.2870   26.5763   10.1441 H         1 MK1         0.0254
     55 H10        11.9696   27.1493    8.5845 H         1 MK1         0.0254
     56 H11        11.9320   25.3925    8.9570 H         1 MK1         0.0254
     57 H12         9.3713   25.5744   10.3287 H         1 MK1         0.0254
     58 H13         9.8070   24.2820    9.1598 H         1 MK1         0.0254
     59 H14         8.3278   25.2672    8.8993 H         1 MK1         0.0254
     60 H15        11.9146   23.4414    4.9030 H         1 MK1         0.2061
     61 H16        12.5226   22.9970    2.8566 H         1 MK1         0.0868
     62 H17        11.9901   24.6176    2.2936 H         1 MK1         0.0868
     63 H18        10.4042   23.2708    1.3972 H         1 MK1         0.0868
     64 H19        10.4342   22.1188    2.7751 H         1 MK1         0.0868
     65 H20        12.9271   25.7782    5.2739 H         1 MK1         0.0840
     66 H21        13.4025   25.3837    3.5872 H         1 MK1         0.0840
     67 H22        14.1684   23.0970    4.5549 H         1 MK1         0.0648
     68 H23        15.1152   25.0837    3.7140 H         1 MK1         0.2100
     69 H24        13.5055   23.3273    6.9544 H         1 MK1         0.0321
     70 H25        14.6260   24.7272    7.0608 H         1 MK1         0.0321
     71 H26        16.5193   23.2667    6.6645 H         1 MK1         0.0561
     72 H27        14.6850   22.2618    8.8924 H         1 MK1         0.0453
     73 H28        15.8174   23.6532    8.9827 H         1 MK1         0.0453
     74 H29        18.3241   22.7564    7.9222 H         1 MK1         0.0557
     75 H30        20.0658   21.1462    8.6312 H         1 MK1         0.0599
     76 H31        19.4258   19.2231   10.0676 H         1 MK1         0.0559
     77 H32        17.0776   18.9371   10.8114 H         1 MK1         0.0599
     78 H33        15.3449   20.5660   10.0905 H         1 MK1         0.0557
     79 H34        17.3810   21.5036    5.8039 H         1 MK1         0.1880
     80 H35        15.9332   18.9864    6.2126 H         1 MK1         0.0732
     81 H36        18.1028   18.6371    6.9914 H         1 MK1         0.0659
     82 H37        19.9176   19.5697    5.9107 H         1 MK1         0.2103
     83 H38        17.8308   16.8457    5.5850 H         1 MK1         0.0439
     84 H39        19.2935   17.5743    4.8392 H         1 MK1         0.0439
     85 H40        18.1879   16.5634    2.2461 H         1 MK1         0.0537
     86 H41        16.6143   17.4619    0.5376 H         1 MK1         0.0541
     87 H42        15.0416   19.2695    1.1034 H         1 MK1         0.0541
     88 H43        14.9796   20.2804    3.3240 H         1 MK1         0.0538
     89 H44         8.0250   22.1225    3.1083 H         1 MK1         0.0997
     90 H45         8.0954   22.9508    1.5160 H         1 MK1         0.0997
     91 H46         6.7887   25.1914    1.3301 H         1 MK1         0.0767
     92 H47         3.2255   25.2409    3.5720 H         1 MK1         0.0767
     93 H48         4.0277   23.3872    4.9317 H         1 MK1         0.0693
     94 H49         6.2690   22.3835    4.4951 H         1 MK1         0.0680
@<TRIPOS>BOND
     1    1   39 1  
     2    1   13 1  
     3    1    2 1  
     4    2    3 1  
     5    3   11 1  
     6    3    4 1  
     7    4    6 am 
     8    4    5 2  
     9    6    7 1  
    10    7   10 1  
    11    7    9 1  
    12    7    8 1  
    13   11   14 1  
    14   11   12 1  
    15   12   13 1  
    16   14   15 1  
    17   15   17 1  
    18   15   16 1  
    19   17   18 1  
    20   18   26 1  
    21   18   19 1  
    22   19   20 1  
    23   20   25 ar 
    24   20   21 ar 
    25   21   22 ar 
    26   22   23 ar 
    27   23   24 ar 
    28   24   25 ar 
    29   26   28 am 
    30   26   27 2  
    31   28   29 1  
    32   29   38 1  
    33   29   30 1  
    34   30   32 1  
    35   30   31 1  
    36   32   33 1  
    37   33   38 ar 
    38   33   34 ar 
    39   34   35 ar 
    40   35   36 ar 
    41   36   37 ar 
    42   37   38 ar 
    43   39   40 1  
    44   40   45 ar 
    45   40   41 ar 
    46   41   42 ar 
    47   42   43 ar 
    48   43   44 ar 
    49   44   45 ar 
    50    1   46 1  
    51    2   47 1  
    52    2   48 1  
    53    3   49 1  
    54    6   50 1  
    55    8   51 1  
    56    8   52 1  
    57    8   53 1  
    58    9   54 1  
    59    9   55 1  
    60    9   56 1  
    61   10   57 1  
    62   10   58 1  
    63   10   59 1  
    64   11   60 1  
    65   12   61 1  
    66   12   62 1  
    67   13   63 1  
    68   13   64 1  
    69   14   65 1  
    70   14   66 1  
    71   15   67 1  
    72   16   68 1  
    73   17   69 1  
    74   17   70 1  
    75   18   71 1  
    76   19   72 1  
    77   19   73 1  
    78   21   74 1  
    79   22   75 1  
    80   23   76 1  
    81   24   77 1  
    82   25   78 1  
    83   28   79 1  
    84   29   80 1  
    85   30   81 1  
    86   31   82 1  
    87   32   83 1  
    88   32   84 1  
    89   34   85 1  
    90   35   86 1  
    91   36   87 1  
    92   37   88 1  
    93   39   89 1  
    94   39   90 1  
    95   41   91 1  
    96   43   92 1  
    97   44   93 1  
    98   45   94 1  
@<TRIPOS>SUBSTRUCTURE
     1 MK1         1

