### 
### Created by X-TOOL on Mon Sep 10 21:12:45 2018
### 

@<TRIPOS>MOLECULE
1hsh_ligand
   94    98     1     0     0
SMALL
GAST_HUCK


@<TRIPOS>ATOM
      1 N1         11.8340    4.3590    9.9060 N.4       1 MK1         0.2576
      2 C1         12.7330    3.1970    9.9370 C.3       1 MK1         0.0316
      3 C2         13.3080    2.6910    8.6070 C.3       1 MK1         0.1092
      4 C3         14.1000    1.4240    8.8820 C.2       1 MK1         0.2304
      5 O1         13.5090    0.3830    9.1850 O.2       1 MK1        -0.3906
      6 N2         15.4300    1.5170    8.8220 N.am      1 MK1        -0.2769
      7 C4         16.4300    0.3730    9.1140 C.3       1 MK1         0.0448
      8 C5         17.9040    0.8640    9.0220 C.3       1 MK1        -0.0396
      9 C6         16.4940   -0.6600    7.9530 C.3       1 MK1        -0.0396
     10 C7         16.1200   -0.3140   10.5490 C.3       1 MK1        -0.0396
     11 N3         12.2600    2.5380    7.5910 N.4       1 MK1         0.2635
     12 C8         11.2470    3.6340    7.5410 C.3       1 MK1         0.0117
     13 C9         10.7520    4.1370    8.9100 C.3       1 MK1         0.0112
     14 C10        12.7070    2.0400    6.3020 C.3       1 MK1        -0.0026
     15 C11        11.7170    1.0420    5.6970 C.3       1 MK1         0.0974
     16 O2         11.8160    1.0600    4.2690 O.3       1 MK1        -0.3864
     17 C12        11.8960   -0.4230    6.0910 C.3       1 MK1        -0.0003
     18 C13        11.0140   -1.4400    5.3650 C.3       1 MK1         0.0608
     19 C14        11.6830   -2.7690    5.7160 C.3       1 MK1         0.0007
     20 C15        10.8330   -3.9550    5.4080 C.ar      1 MK1        -0.0405
     21 C16        10.4000   -4.2230    4.1150 C.ar      1 MK1        -0.0602
     22 C17         9.4470   -5.2180    3.8990 C.ar      1 MK1        -0.0686
     23 C18         8.9360   -5.9430    4.9810 C.ar      1 MK1        -0.0687
     24 C19         9.3790   -5.6790    6.2700 C.ar      1 MK1        -0.0686
     25 C20        10.3260   -4.6920    6.4830 C.ar      1 MK1        -0.0602
     26 C21         9.5570   -1.3850    5.8630 C.2       1 MK1         0.1831
     27 O3          9.2740   -0.9040    6.9590 O.2       1 MK1        -0.3964
     28 N4          8.6380   -1.9010    5.0490 N.am      1 MK1        -0.2707
     29 C22         7.2200   -2.0180    5.3980 C.3       1 MK1         0.1006
     30 C23         6.4390   -2.8300    4.3370 C.3       1 MK1         0.0951
     31 O4          7.1820   -2.9470    3.1220 O.3       1 MK1        -0.3857
     32 C24         5.0390   -2.2750    4.3350 C.3       1 MK1         0.0085
     33 C25         5.0260   -0.8500    4.8220 C.ar      1 MK1        -0.0361
     34 C26         4.1270    0.2010    4.7200 C.ar      1 MK1        -0.0667
     35 C27         4.5010    1.4360    5.2500 C.ar      1 MK1        -0.0755
     36 C28         5.7400    1.6180    5.8890 C.ar      1 MK1        -0.0754
     37 C29         6.6740    0.5710    6.0220 C.ar      1 MK1        -0.0646
     38 C30         6.4170   -0.7040    5.5100 C.ar      1 MK1        -0.0133
     39 C31        11.4660    4.9870   11.2060 C.3       1 MK1         0.0087
     40 C32        12.5180    5.3700   12.3280 C.ar      1 MK1         0.0294
     41 C33        13.6040    6.2000   12.0930 C.ar      1 MK1         0.0176
     42 N5         14.5190    6.6560   13.1340 N.ar      1 MK1        -0.3042
     43 C34        14.1940    6.1760   14.4180 C.ar      1 MK1         0.0042
     44 C35        13.1230    5.3490   14.6790 C.ar      1 MK1        -0.0403
     45 C36        12.2840    4.9420   13.6370 C.ar      1 MK1        -0.0354
     46 H1         12.3977    5.0783    9.4807 H         1 MK1         0.2056
     47 H2         12.1745    2.3641   10.3890 H         1 MK1         0.0899
     48 H3         13.5845    3.4602   10.5817 H         1 MK1         0.0899
     49 H4         14.0122    3.4470    8.2294 H         1 MK1         0.1155
     50 H5         15.8140    2.4041    8.5658 H         1 MK1         0.1859
     51 H6         18.5836    0.0257    9.2350 H         1 MK1         0.0254
     52 H7         18.0698    1.6661    9.7562 H         1 MK1         0.0254
     53 H8         18.1004    1.2471    8.0097 H         1 MK1         0.0254
     54 H9         17.2153   -1.4511    8.2055 H         1 MK1         0.0254
     55 H10        16.8127   -0.1545    7.0295 H         1 MK1         0.0254
     56 H11        15.4993   -1.1051    7.8029 H         1 MK1         0.0254
     57 H12        16.8432   -1.1223   10.7324 H         1 MK1         0.0254
     58 H13        15.1008   -0.7278   10.5449 H         1 MK1         0.0254
     59 H14        16.2057    0.4418   11.3436 H         1 MK1         0.0254
     60 H15        11.7233    1.7632    7.9484 H         1 MK1         0.2061
     61 H16        10.3759    3.2660    6.9792 H         1 MK1         0.0868
     62 H17        11.6942    4.4858    7.0077 H         1 MK1         0.0868
     63 H18        10.2234    5.0894    8.7569 H         1 MK1         0.0868
     64 H19        10.0540    3.3919    9.3193 H         1 MK1         0.0868
     65 H20        13.6789    1.5414    6.4317 H         1 MK1         0.0840
     66 H21        12.8199    2.8899    5.6129 H         1 MK1         0.0840
     67 H22        10.7080    1.3583    6.0001 H         1 MK1         0.0648
     68 H23        12.6670    0.7287    4.0075 H         1 MK1         0.2100
     69 H24        11.6857   -0.5072    7.1674 H         1 MK1         0.0321
     70 H25        12.9447   -0.6943    5.8999 H         1 MK1         0.0321
     71 H26        11.0296   -1.2683    4.2786 H         1 MK1         0.0561
     72 H27        11.9105   -2.7722    6.7922 H         1 MK1         0.0453
     73 H28        12.6185   -2.8514    5.1432 H         1 MK1         0.0453
     74 H29        10.8008   -3.6617    3.2788 H         1 MK1         0.0557
     75 H30         9.1023   -5.4296    2.8933 H         1 MK1         0.0599
     76 H31         8.1920   -6.7131    4.8124 H         1 MK1         0.0559
     77 H32         8.9846   -6.2439    7.1069 H         1 MK1         0.0599
     78 H33        10.6765   -4.4893    7.4885 H         1 MK1         0.0557
     79 H34         8.9319   -2.2264    4.1503 H         1 MK1         0.1880
     80 H35         7.1717   -2.5374    6.3664 H         1 MK1         0.0732
     81 H36         6.3485   -3.8614    4.7084 H         1 MK1         0.0659
     82 H37         6.7168   -3.5174    2.5213 H         1 MK1         0.2103
     83 H38         4.4077   -2.8873    4.9957 H         1 MK1         0.0439
     84 H39         4.6393   -2.3093    3.3108 H         1 MK1         0.0439
     85 H40         3.1629    0.0669    4.2429 H         1 MK1         0.0537
     86 H41         3.8201    2.2754    5.1672 H         1 MK1         0.0541
     87 H42         5.9846    2.5941    6.2920 H         1 MK1         0.0541
     88 H43         7.6118    0.7585    6.5323 H         1 MK1         0.0538
     89 H44        10.7580    4.2937   11.6836 H         1 MK1         0.0997
     90 H45        10.9471    5.9226   10.9503 H         1 MK1         0.0997
     91 H46        13.7836    6.5294   11.0760 H         1 MK1         0.0767
     92 H47        14.8229    6.4745   15.2489 H         1 MK1         0.0767
     93 H48        12.9310    5.0140   15.6919 H         1 MK1         0.0693
     94 H49        11.4448    4.2887   13.8468 H         1 MK1         0.0680
@<TRIPOS>BOND
     1    1   39 1  
     2    1   13 1  
     3    1    2 1  
     4    2    3 1  
     5    3   11 1  
     6    3    4 1  
     7    4    6 am 
     8    4    5 2  
     9    6    7 1  
    10    7   10 1  
    11    7    9 1  
    12    7    8 1  
    13   11   14 1  
    14   11   12 1  
    15   12   13 1  
    16   14   15 1  
    17   15   17 1  
    18   15   16 1  
    19   17   18 1  
    20   18   26 1  
    21   18   19 1  
    22   19   20 1  
    23   20   25 ar 
    24   20   21 ar 
    25   21   22 ar 
    26   22   23 ar 
    27   23   24 ar 
    28   24   25 ar 
    29   26   28 am 
    30   26   27 2  
    31   28   29 1  
    32   29   38 1  
    33   29   30 1  
    34   30   32 1  
    35   30   31 1  
    36   32   33 1  
    37   33   38 ar 
    38   33   34 ar 
    39   34   35 ar 
    40   35   36 ar 
    41   36   37 ar 
    42   37   38 ar 
    43   39   40 1  
    44   40   45 ar 
    45   40   41 ar 
    46   41   42 ar 
    47   42   43 ar 
    48   43   44 ar 
    49   44   45 ar 
    50    1   46 1  
    51    2   47 1  
    52    2   48 1  
    53    3   49 1  
    54    6   50 1  
    55    8   51 1  
    56    8   52 1  
    57    8   53 1  
    58    9   54 1  
    59    9   55 1  
    60    9   56 1  
    61   10   57 1  
    62   10   58 1  
    63   10   59 1  
    64   11   60 1  
    65   12   61 1  
    66   12   62 1  
    67   13   63 1  
    68   13   64 1  
    69   14   65 1  
    70   14   66 1  
    71   15   67 1  
    72   16   68 1  
    73   17   69 1  
    74   17   70 1  
    75   18   71 1  
    76   19   72 1  
    77   19   73 1  
    78   21   74 1  
    79   22   75 1  
    80   23   76 1  
    81   24   77 1  
    82   25   78 1  
    83   28   79 1  
    84   29   80 1  
    85   30   81 1  
    86   31   82 1  
    87   32   83 1  
    88   32   84 1  
    89   34   85 1  
    90   35   86 1  
    91   36   87 1  
    92   37   88 1  
    93   39   89 1  
    94   39   90 1  
    95   41   91 1  
    96   43   92 1  
    97   44   93 1  
    98   45   94 1  
@<TRIPOS>SUBSTRUCTURE
     1 MK1         1

