### 
### Created by X-TOOL on Mon Sep 10 21:12:45 2018
### 

@<TRIPOS>MOLECULE
1hte_ligand
   58    60     1     0     0
SMALL
GAST_HUCK


@<TRIPOS>ATOM
      1 C1         10.1920   24.9880    3.7440 C.3       1 G23         0.0459
      2 C2          7.8080   25.2740    3.4000 C.3       1 G23         0.0678
      3 C3          7.1780   26.6710    3.5200 C.3       1 G23         0.1837
      4 C4          5.8860   26.6480    2.6950 C.2       1 G23         0.2101
      5 C5         10.0070   22.6620    2.5350 C.3       1 G23        -0.0437
      6 C6         11.1020   24.4610    1.3860 C.3       1 G23        -0.0437
      7 C7         11.1000   24.5730    4.8930 C.2       1 G23         0.0859
      8 C8         10.0200   24.1590    2.4700 C.3       1 G23         0.0708
      9 C9          4.9710   27.3210    0.5510 C.3       1 G23         0.0645
     10 C10         7.5400   28.0510    5.7240 C.2       1 G23         0.1899
     11 C11         7.1050   27.8090    7.1440 C.3       1 G23         0.0705
     12 C12         9.1040   26.6490    8.0980 C.ar      1 G23        -0.0580
     13 C13         8.3670   27.8260    7.9640 C.ar      1 G23        -0.0243
     14 C14         8.7830   28.9400    8.6130 C.ar      1 G23        -0.0580
     15 C15         9.9310   28.9340    9.3770 C.ar      1 G23        -0.0681
     16 C16        10.6830   27.8300    9.4780 C.ar      1 G23        -0.0684
     17 C17        10.2370   26.6550    8.8220 C.ar      1 G23        -0.0681
     18 C18         7.4980   27.7670   -2.2250 C.ar      1 G23        -0.0685
     19 C19         6.8100   28.4130   -3.2140 C.ar      1 G23        -0.0687
     20 C20         5.5020   28.7160   -2.9810 C.ar      1 G23        -0.0685
     21 C21         4.9240   28.3680   -1.7850 C.ar      1 G23        -0.0584
     22 C22         5.5690   27.7170   -0.8010 C.ar      1 G23        -0.0210
     23 C23         6.9150   27.4160   -1.0560 C.ar      1 G23        -0.0584
     24 N1          8.8810   25.1710    4.3360 N.4       1 G23         0.2549
     25 N2          7.0600   27.0320    4.9260 N.am      1 G23        -0.2585
     26 N3          6.0240   27.2380    1.5070 N.am      1 G23        -0.2735
     27 O1          4.8750   26.0970    3.0410 O.2       1 G23        -0.3941
     28 O2          8.2430   29.0150    5.4800 O.2       1 G23        -0.3939
     29 O3         10.8830   23.5290    5.4860 O.co2     1 G23        -0.5642
     30 O4         11.9750   25.3320    5.3230 O.co2     1 G23        -0.5642
     31 S1          8.4580   24.8950    1.7720 S.3       1 G23        -0.0900
     32 H1         10.5683   25.9645    3.4051 H         1 G23         0.1039
     33 H2          7.0367   24.5291    3.6454 H         1 G23         0.1025
     34 H3          7.8512   27.4072    3.0565 H         1 G23         0.0868
     35 H4          9.8739   22.2522    1.5229 H         1 G23         0.0246
     36 H5          9.1777   22.3300    3.1769 H         1 G23         0.0246
     37 H6         10.9598   22.3048    2.9528 H         1 G23         0.0246
     38 H7         11.1959   25.5491    1.2549 H         1 G23         0.0246
     39 H8         10.8039   24.0012    0.4322 H         1 G23         0.0246
     40 H9         12.0686   24.0456    1.7070 H         1 G23         0.0246
     41 H10         4.4719   26.3446    0.4638 H         1 G23         0.0683
     42 H11         4.2404   28.0791    0.8694 H         1 G23         0.0683
     43 H12         6.6041   26.8335    7.2309 H         1 G23         0.0659
     44 H13         6.4207   28.6035    7.4764 H         1 G23         0.0659
     45 H14         8.7655   25.7360    7.6217 H         1 G23         0.0561
     46 H15         8.2032   29.8522    8.5303 H         1 G23         0.0561
     47 H16        10.2287   29.8341    9.9025 H         1 G23         0.0600
     48 H17        11.6066   27.8349   10.0454 H         1 G23         0.0561
     49 H18        10.8200   25.7449    8.9056 H         1 G23         0.0600
     50 H19         8.5436   27.5285   -2.3825 H         1 G23         0.0599
     51 H20         7.2882   28.6751   -4.1509 H         1 G23         0.0559
     52 H21         4.9198   29.2300   -3.7372 H         1 G23         0.0599
     53 H22         3.8855   28.6340   -1.6245 H         1 G23         0.0557
     54 H23         7.4969   26.8942   -0.3049 H         1 G23         0.0557
     55 H24         8.9003   26.0165    4.8844 H         1 G23         0.2045
     56 H25         8.6967   24.3840    4.9382 H         1 G23         0.2045
     57 H26         6.4942   26.3850    5.4371 H         1 G23         0.1886
     58 H27         6.9093   27.6416    1.2761 H         1 G23         0.1878
@<TRIPOS>BOND
     1    1    7 1  
     2    8    1 1  
     3   24    1 1  
     4    3    2 1  
     5    2   24 1  
     6    2   31 1  
     7    4    3 1  
     8    3   25 1  
     9   26    4 am 
    10    4   27 2  
    11    8    5 1  
    12    8    6 1  
    13    7   29 ar 
    14    7   30 ar 
    15   31    8 1  
    16   22    9 1  
    17    9   26 1  
    18   10   11 1  
    19   25   10 am 
    20   10   28 2  
    21   11   13 1  
    22   13   12 ar 
    23   12   17 ar 
    24   13   14 ar 
    25   14   15 ar 
    26   15   16 ar 
    27   17   16 ar 
    28   19   18 ar 
    29   18   23 ar 
    30   20   19 ar 
    31   21   20 ar 
    32   21   22 ar 
    33   22   23 ar 
    34    1   32 1  
    35    2   33 1  
    36    3   34 1  
    37    5   35 1  
    38    5   36 1  
    39    5   37 1  
    40    6   38 1  
    41    6   39 1  
    42    6   40 1  
    43    9   41 1  
    44    9   42 1  
    45   11   43 1  
    46   11   44 1  
    47   12   45 1  
    48   14   46 1  
    49   15   47 1  
    50   16   48 1  
    51   17   49 1  
    52   18   50 1  
    53   19   51 1  
    54   20   52 1  
    55   21   53 1  
    56   23   54 1  
    57   24   55 1  
    58   24   56 1  
    59   25   57 1  
    60   26   58 1  
@<TRIPOS>SUBSTRUCTURE
     1 G23         1

