### 
### Created by X-TOOL on Mon Sep 10 21:12:45 2018
### 

@<TRIPOS>MOLECULE
1htf_ligand
   80    83     1     0     0
SMALL
GAST_HUCK


@<TRIPOS>ATOM
      1 C          18.5650    4.3310    1.2190 C.3       1 G26         0.0761
      2 C1         18.4580    3.2440    2.2930 C.3       1 G26         0.0824
      3 C2         17.5490    5.1160    3.5890 C.3       1 G26         0.0683
      4 C3         18.4590    5.3740    4.7890 C.3       1 G26         0.1837
      5 C4         18.4600    6.8680    5.1520 C.2       1 G26         0.2101
      6 C5         17.4080    4.3540    0.2220 C.3       1 G26        -0.0430
      7 C6         19.9170    4.3570    0.5260 C.3       1 G26        -0.0430
      8 C7         18.2080    1.8540    1.7090 C.2       1 G26         0.2264
      9 C8         19.2390    0.0440    0.4170 C.3       1 G26         0.0746
     10 C9         19.6500    8.7030    6.2390 C.3       1 G26         0.0645
     11 C10        20.3880    0.0370   -0.5970 C.3       1 G26         0.0690
     12 C11        18.8590    3.4980    6.2450 C.2       1 G26         0.1899
     13 C12        18.2710    2.4920    7.2150 C.3       1 G26         0.0705
     14 C13        17.6780    0.9130    5.3720 C.ar      1 G26        -0.0580
     15 C14        18.3280    1.1290    6.5770 C.ar      1 G26        -0.0243
     16 C15        19.0210    0.0980    7.1770 C.ar      1 G26        -0.0580
     17 C16        19.0570   -1.1300    6.5620 C.ar      1 G26        -0.0681
     18 C17        18.4150   -1.3290    5.3570 C.ar      1 G26        -0.0684
     19 C18        17.7190   -0.3100    4.7600 C.ar      1 G26        -0.0681
     20 C19        19.1970   -1.2060    1.3200 C.3       1 G26         0.0061
     21 C20        18.2030   -4.8560   -0.7260 C.ar      1 G26        -0.0687
     22 C21        19.5250   -4.4950   -0.5790 C.ar      1 G26        -0.0686
     23 C22        19.8590   -3.3270    0.0720 C.ar      1 G26        -0.0603
     24 C23        18.8680   -2.5060    0.5820 C.ar      1 G26        -0.0408
     25 C24        17.5550   -2.8900    0.4210 C.ar      1 G26        -0.0603
     26 C25        17.2110   -4.0550   -0.2240 C.ar      1 G26        -0.0686
     27 C26        19.4510    9.8560    9.8350 C.ar      1 G26        -0.0685
     28 C27        18.0980    9.7760   10.0850 C.ar      1 G26        -0.0687
     29 C28        17.2430    9.3340    9.0970 C.ar      1 G26        -0.0685
     30 C29        17.7420    8.9760    7.8590 C.ar      1 G26        -0.0584
     31 C30        19.0980    9.0560    7.6010 C.ar      1 G26        -0.0210
     32 C31        19.9470    9.4960    8.5990 C.ar      1 G26        -0.0584
     33 N          17.4500    3.7180    3.2440 N.4       1 G26         0.2601
     34 N1         19.2830    1.2850    1.1750 N.am      1 G26        -0.2751
     35 N2         18.0550    4.4920    5.8910 N.am      1 G26        -0.2585
     36 N3         19.5100    7.3020    5.8370 N.am      1 G26        -0.2735
     37 O          17.1220    1.3050    1.7020 O.2       1 G26        -0.3908
     38 O1         17.5570    7.6270    4.8440 O.2       1 G26        -0.3941
     39 O2         20.0010    3.3940    5.8350 O.2       1 G26        -0.3939
     40 O4         21.6500   -0.0540    0.0440 O.3       1 G26        -0.3926
     41 S          18.3550    5.8670    2.1630 S.3       1 G26        -0.0893
     42 H1         19.4196    3.1888    2.8242 H         1 G26         0.1113
     43 H2         16.5513    5.5423    3.7705 H         1 G26         0.1025
     44 H3         19.4877    5.1049    4.5072 H         1 G26         0.0868
     45 H4         17.5687    5.1614   -0.5075 H         1 G26         0.0246
     46 H5         16.4642    4.5280    0.7595 H         1 G26         0.0246
     47 H6         17.3580    3.3892   -0.3040 H         1 G26         0.0246
     48 H7         20.7165    4.3392    1.2813 H         1 G26         0.0246
     49 H8         20.0025    5.2731   -0.0769 H         1 G26         0.0246
     50 H9         20.0108    3.4775   -0.1280 H         1 G26         0.0246
     51 H10        18.3007    0.0439   -0.1570 H         1 G26         0.0601
     52 H11        19.1290    9.3215    5.4933 H         1 G26         0.0683
     53 H12        20.7220    8.9494    6.2354 H         1 G26         0.0683
     54 H13        20.3520    0.9668   -1.1837 H         1 G26         0.0582
     55 H14        20.2659   -0.8254   -1.2688 H         1 G26         0.0582
     56 H15        17.2262    2.7555    7.4360 H         1 G26         0.0659
     57 H16        18.8540    2.4904    8.1478 H         1 G26         0.0659
     58 H17        17.1294    1.7246    4.9079 H         1 G26         0.0561
     59 H18        19.5303    0.2547    8.1210 H         1 G26         0.0561
     60 H19        19.5939   -1.9489    7.0270 H         1 G26         0.0600
     61 H20        18.4614   -2.3003    4.8779 H         1 G26         0.0561
     62 H21        17.2088   -0.4708    3.8172 H         1 G26         0.0600
     63 H22        18.4318   -1.0463    2.0939 H         1 G26         0.0449
     64 H23        20.1820   -1.3202    1.7962 H         1 G26         0.0449
     65 H24        17.9474   -5.7756   -1.2399 H         1 G26         0.0559
     66 H25        20.3058   -5.1328   -0.9773 H         1 G26         0.0599
     67 H26        20.9010   -3.0504    0.1850 H         1 G26         0.0557
     68 H27        16.7694   -2.2550    0.8144 H         1 G26         0.0557
     69 H28        16.1697   -4.3356   -0.3337 H         1 G26         0.0599
     70 H29        20.1256   10.2019   10.6098 H         1 G26         0.0599
     71 H30        17.7069   10.0596   11.0554 H         1 G26         0.0559
     72 H31        16.1787    9.2674    9.2918 H         1 G26         0.0599
     73 H32        17.0660    8.6303    7.0853 H         1 G26         0.0557
     74 H33        21.0123    9.5588    8.4088 H         1 G26         0.0557
     75 H34        17.5411    3.1794    4.0911 H         1 G26         0.2050
     76 H35        16.5400    3.5588    2.8408 H         1 G26         0.2050
     77 H36        20.1683    1.7328    1.3005 H         1 G26         0.1858
     78 H37        17.1878    4.6382    6.3670 H         1 G26         0.1886
     79 H38        20.2280    6.6522    6.0865 H         1 G26         0.1878
     80 H39        21.6902   -0.8577    0.5489 H         1 G26         0.2095
@<TRIPOS>BOND
     1    1    2 1  
     2    1    6 1  
     3    1    7 1  
     4   41    1 1  
     5    2    8 1  
     6   33    2 1  
     7    4    3 1  
     8    3   33 1  
     9    3   41 1  
    10    5    4 1  
    11    4   35 1  
    12   36    5 am 
    13    5   38 2  
    14    8   34 am 
    15    8   37 2  
    16    9   11 1  
    17    9   20 1  
    18   34    9 1  
    19   11   40 1  
    20   12   13 1  
    21   35   12 am 
    22   12   39 2  
    23   13   15 1  
    24   15   16 ar 
    25   16   17 ar 
    26   17   18 ar 
    27   18   19 ar 
    28   20   24 1  
    29   22   21 ar 
    30   23   22 ar 
    31   24   23 ar 
    32   24   25 ar 
    33   25   26 ar 
    34   26   21 ar 
    35   27   28 ar 
    36   32   27 ar 
    37   29   28 ar 
    38   30   29 ar 
    39   31   30 ar 
    40   31   32 ar 
    41   10   36 1  
    42   10   31 1  
    43   19   14 ar 
    44   15   14 ar 
    45    2   42 1  
    46    3   43 1  
    47    4   44 1  
    48    6   45 1  
    49    6   46 1  
    50    6   47 1  
    51    7   48 1  
    52    7   49 1  
    53    7   50 1  
    54    9   51 1  
    55   10   52 1  
    56   10   53 1  
    57   11   54 1  
    58   11   55 1  
    59   13   56 1  
    60   13   57 1  
    61   14   58 1  
    62   16   59 1  
    63   17   60 1  
    64   18   61 1  
    65   19   62 1  
    66   20   63 1  
    67   20   64 1  
    68   21   65 1  
    69   22   66 1  
    70   23   67 1  
    71   25   68 1  
    72   26   69 1  
    73   27   70 1  
    74   28   71 1  
    75   29   72 1  
    76   30   73 1  
    77   32   74 1  
    78   33   75 1  
    79   33   76 1  
    80   34   77 1  
    81   35   78 1  
    82   36   79 1  
    83   40   80 1  
@<TRIPOS>SUBSTRUCTURE
     1 G26         1

