### 
### Created by X-TOOL on Mon Sep 10 21:12:45 2018
### 

@<TRIPOS>MOLECULE
1htg_ligand
  103   108     1     0     0
SMALL
GAST_HUCK


@<TRIPOS>ATOM
      1 C1         14.6060   22.9110    3.9500 C.3       1 G37         0.0657
      2 C2         13.1600   24.0890    5.6660 C.3       1 G37         0.0796
      3 C3         10.7590   24.1700    5.0360 C.2       1 G37         0.2264
      4 C4          9.7720   24.8180    4.0710 C.3       1 G37         0.0824
      5 C5          7.4120   25.1360    3.6000 C.3       1 G37         0.0683
      6 C6          9.6910   24.0870    2.7320 C.3       1 G37         0.0761
      7 C7          9.5600   22.5730    2.8480 C.3       1 G37        -0.0430
      8 C8         10.8230   24.4820    1.8210 C.3       1 G37        -0.0430
      9 C9          7.0150   26.5990    3.4860 C.3       1 G37         0.1837
     10 C10         7.6770   27.9900    5.4610 C.2       1 G37         0.1899
     11 C11         7.3930   28.1900    6.9650 C.3       1 G37         0.0705
     12 C12         8.4930   27.5990    7.8310 C.ar      1 G37        -0.0243
     13 C13         9.4140   28.4170    8.4500 C.ar      1 G37        -0.0580
     14 C14        10.4820   27.8890    9.1340 C.ar      1 G37        -0.0681
     15 C15        10.6470   26.5360    9.2250 C.ar      1 G37        -0.0684
     16 C16         9.7280   25.6980    8.6400 C.ar      1 G37        -0.0681
     17 C17         8.6420   26.2150    7.9540 C.ar      1 G37        -0.0580
     18 C18         5.9170   26.6260    2.4350 C.2       1 G37         0.2101
     19 C19         4.1350   25.5180    3.8700 C.3       1 G37         0.0645
     20 C20        14.4750   24.1100    4.8540 C.3       1 G37         0.0965
     21 C21         1.5390   27.1770    6.1210 C.ar      1 G37        -0.0685
     22 C22         2.1460   26.5960    5.0090 C.ar      1 G37        -0.0584
     23 C23         3.4800   26.1800    5.0810 C.ar      1 G37        -0.0210
     24 C24         4.1870   26.3580    6.2780 C.ar      1 G37        -0.0584
     25 C25         3.5910   26.9830    7.3650 C.ar      1 G37        -0.0685
     26 C26         2.2650   27.3780    7.2960 C.ar      1 G37        -0.0687
     27 C27        17.9590   16.7970    2.3830 C.ar      1 G37        -0.0786
     28 C28        17.0060   17.7600    2.6320 C.ar      1 G37        -0.0656
     29 C29        17.1510   18.5160    3.7780 C.ar      1 G37         0.0208
     30 C30        18.3060   18.3480    4.6790 C.ar      1 G37         0.0783
     31 C31        19.2170   17.3720    4.3960 C.ar      1 G37        -0.0422
     32 C32        19.0120   16.5990    3.2730 C.ar      1 G37        -0.0766
     33 C33        16.9870   19.7790    5.5020 C.2       1 G37         0.1435
     34 C34        16.3360   20.7660    6.3940 C.3       1 G37         0.1126
     35 C35        15.6440   23.9920    7.9000 C.ar      1 G37        -0.0603
     36 C36        14.2620   23.9390    7.9320 C.ar      1 G37        -0.0408
     37 C37        13.6800   23.0250    8.7780 C.ar      1 G37        -0.0603
     38 C38        14.4340   22.1550    9.5490 C.ar      1 G37        -0.0686
     39 C39        15.7990   22.1930    9.4810 C.ar      1 G37        -0.0687
     40 C40        16.4060   23.1230    8.6650 C.ar      1 G37        -0.0686
     41 C41        13.3420   24.7730    7.0300 C.3       1 G37         0.0065
     42 C42        14.7620   21.7630    4.8710 C.2       1 G37         0.1811
     43 N1         12.0070   24.5920    4.8720 N.am      1 G37        -0.2746
     44 N2          8.4180   24.9160    4.5850 N.4       1 G37         0.2601
     45 N3          6.7490   27.2600    4.7920 N.am      1 G37        -0.2585
     46 N4          4.6600   26.3990    2.8020 N.am      1 G37        -0.2735
     47 N5         16.3540   19.4290    4.3900 N.2       1 G37        -0.3164
     48 N6         18.1690   19.1980    5.7280 N.pl3     1 G37        -0.2448
     49 N7         15.8970   21.8260    5.5120 N.am      1 G37        -0.2667
     50 O1         10.4360   23.3490    5.8760 O.2       1 G37        -0.3908
     51 O2          8.6890   28.4490    4.9480 O.2       1 G37        -0.3939
     52 O3          6.1610   26.8520    1.2570 O.2       1 G37        -0.3941
     53 O4         14.4550   25.2470    4.0590 O.3       1 G37        -0.3870
     54 O5         13.9050   20.9140    5.0660 O.2       1 G37        -0.3968
     55 S1          8.1400   24.6880    2.0090 S.3       1 G37        -0.0893
     56 H1         15.4878   23.0096    3.2998 H         1 G37         0.0529
     57 H2         13.7050   22.7918    3.3304 H         1 G37         0.0529
     58 H3         12.9404   23.0329    5.8812 H         1 G37         0.0606
     59 H4         10.1360   25.8388    3.8826 H         1 G37         0.1113
     60 H5          6.5275   24.5210    3.8222 H         1 G37         0.1025
     61 H6          9.5085   22.1313    1.8419 H         1 G37         0.0246
     62 H7          8.6438   22.3258    3.4042 H         1 G37         0.0246
     63 H8         10.4331   22.1692    3.3815 H         1 G37         0.0246
     64 H9         10.8829   25.5789    1.7650 H         1 G37         0.0246
     65 H10        10.6445   24.0728    0.8157 H         1 G37         0.0246
     66 H11        11.7685   24.0829    2.2168 H         1 G37         0.0246
     67 H12         7.8722   27.1424    3.0618 H         1 G37         0.0868
     68 H13         6.4407   27.6999    7.2157 H         1 G37         0.0659
     69 H14         7.3167   29.2675    7.1727 H         1 G37         0.0659
     70 H15         9.2937   29.4930    8.3962 H         1 G37         0.0561
     71 H16        11.1994   28.5512    9.6052 H         1 G37         0.0600
     72 H17        11.4983   26.1254    9.7558 H         1 G37         0.0561
     73 H18         9.8543   24.6241    8.7162 H         1 G37         0.0600
     74 H19         7.9096   25.5481    7.5137 H         1 G37         0.0561
     75 H20         4.9766   24.9147    4.2411 H         1 G37         0.0683
     76 H21         3.3845   24.8575    3.4112 H         1 G37         0.0683
     77 H22        15.3312   24.1415    5.5439 H         1 G37         0.0643
     78 H23         0.4977   27.4743    6.0731 H         1 G37         0.0599
     79 H24         1.5857   26.4667    4.0901 H         1 G37         0.0557
     80 H25         5.2087   26.0044    6.3558 H         1 G37         0.0557
     81 H26         4.1634   27.1620    8.2680 H         1 G37         0.0599
     82 H27         1.7918   27.8426    8.1535 H         1 G37         0.0559
     83 H28        17.8890   16.1891    1.4882 H         1 G37         0.0516
     84 H29        16.1747   17.9180    1.9545 H         1 G37         0.0535
     85 H30        20.0769   17.2093    5.0357 H         1 G37         0.0541
     86 H31        19.7084   15.7930    3.0716 H         1 G37         0.0528
     87 H32        17.0520   21.1501    7.1354 H         1 G37         0.0793
     88 H33        15.4783   20.3132    6.9129 H         1 G37         0.0793
     89 H34        16.1371   24.7223    7.2687 H         1 G37         0.0557
     90 H35        12.5988   22.9837    8.8439 H         1 G37         0.0557
     91 H36        13.9425   21.4455   10.2049 H         1 G37         0.0599
     92 H37        16.3966   21.4999   10.0620 H         1 G37         0.0559
     93 H38        17.4879   23.1753    8.6211 H         1 G37         0.0599
     94 H39        13.7874   25.7675    6.8795 H         1 G37         0.0449
     95 H40        12.3604   24.8804    7.5147 H         1 G37         0.0449
     96 H41        12.1819   25.2875    4.1751 H         1 G37         0.1859
     97 H42         8.2030   24.0557    5.0643 H         1 G37         0.2050
     98 H43         8.3871   25.6820    5.2394 H         1 G37         0.2050
     99 H44         5.8402   27.1614    5.1975 H         1 G37         0.1886
    100 H45         3.9669   26.8963    2.2802 H         1 G37         0.1878
    101 H46        18.8197   19.3571    6.5104 H         1 G37         0.2323
    102 H47        16.4798   22.6294    5.3903 H         1 G37         0.1888
    103 H48        15.2623   25.2980    3.5608 H         1 G37         0.2101
@<TRIPOS>BOND
     1   20    1 1  
     2    1   42 1  
     3    4    3 1  
     4    4    6 1  
     5    6    7 1  
     6    6    8 1  
     7    9   18 1  
     8   10   11 1  
     9   11   12 1  
    10   12   13 ar 
    11   12   17 ar 
    12   13   14 ar 
    13   14   15 ar 
    14   16   15 ar 
    15   17   16 ar 
    16   20   53 1  
    17   22   21 ar 
    18   21   26 ar 
    19   23   22 ar 
    20   23   24 ar 
    21   24   25 ar 
    22   25   26 ar 
    23   28   27 ar 
    24   27   32 ar 
    25   29   28 ar 
    26   29   30 ar 
    27   30   31 ar 
    28   31   32 ar 
    29   34   33 1  
    30   36   35 ar 
    31   35   40 ar 
    32   36   37 ar 
    33   41   36 1  
    34   37   38 ar 
    35   38   39 ar 
    36   40   39 ar 
    37   42   49 am 
    38   42   54 2  
    39   49   34 1  
    40   55    6 1  
    41    5   55 1  
    42   18   52 2  
    43   10   51 2  
    44    3   50 2  
    45   33   48 1  
    46   48   30 1  
    47   33   47 2  
    48   47   29 1  
    49   46   19 1  
    50   18   46 am 
    51   45   10 am 
    52    9   45 1  
    53    5   44 1  
    54   44    4 1  
    55    3   43 am 
    56   43    2 1  
    57    2   41 1  
    58   19   23 1  
    59    2   20 1  
    60    5    9 1  
    61    1   56 1  
    62    1   57 1  
    63    2   58 1  
    64    4   59 1  
    65    5   60 1  
    66    7   61 1  
    67    7   62 1  
    68    7   63 1  
    69    8   64 1  
    70    8   65 1  
    71    8   66 1  
    72    9   67 1  
    73   11   68 1  
    74   11   69 1  
    75   13   70 1  
    76   14   71 1  
    77   15   72 1  
    78   16   73 1  
    79   17   74 1  
    80   19   75 1  
    81   19   76 1  
    82   20   77 1  
    83   21   78 1  
    84   22   79 1  
    85   24   80 1  
    86   25   81 1  
    87   26   82 1  
    88   27   83 1  
    89   28   84 1  
    90   31   85 1  
    91   32   86 1  
    92   34   87 1  
    93   34   88 1  
    94   35   89 1  
    95   37   90 1  
    96   38   91 1  
    97   39   92 1  
    98   40   93 1  
    99   41   94 1  
   100   41   95 1  
   101   43   96 1  
   102   44   97 1  
   103   44   98 1  
   104   45   99 1  
   105   46  100 1  
   106   48  101 1  
   107   49  102 1  
   108   53  103 1  
@<TRIPOS>SUBSTRUCTURE
     1 G37         1

