### 
### Created by X-TOOL on Sun Sep  9 21:50:03 2018
### 

@<TRIPOS>MOLECULE
1hty_ligand
   22    21     1     0     0
SMALL
GAST_HUCK


@<TRIPOS>ATOM
      1 C1         14.8810   61.1260   10.2450 C.3       1 NON        -0.0363
      2 C2         16.3240   61.1700   10.6310 C.3       1 NON         0.0629
      3 O2         16.9880   60.0560    9.9950 O.3       1 NON        -0.3890
      4 CM         16.9740   62.4410   10.1530 C.3       1 NON        -0.0363
      5 C3         16.4490   61.0050   12.1700 C.3       1 NON         0.0013
      6 C4         17.8170   60.6420   12.7500 C.3       1 NON         0.0550
      7 O4         17.6760   59.6730   13.7670 O.3       1 NON        -0.3920
      8 C5         18.4630   61.8600   13.3990 C.3       1 NON        -0.0389
      9 H1         14.3495   61.9656   10.7167 H         1 NON         0.0257
     10 H2         14.4398   60.1767   10.5828 H         1 NON         0.0257
     11 H3         14.7914   61.2034    9.1514 H         1 NON         0.0257
     12 H4         17.9092   60.0636   10.2268 H         1 NON         0.2101
     13 H5         18.0329   62.4457   10.4507 H         1 NON         0.0257
     14 H6         16.4631   63.3055   10.6021 H         1 NON         0.0257
     15 H7         16.9010   62.5005    9.0571 H         1 NON         0.0257
     16 H8         15.7469   60.2136   12.4711 H         1 NON         0.0318
     17 H9         16.1443   61.9585   12.6259 H         1 NON         0.0318
     18 H10        18.4618   60.2561   11.9467 H         1 NON         0.0591
     19 H11        18.5320   59.4570   14.1180 H         1 NON         0.2098
     20 H12        19.4442   61.5795   13.8096 H         1 NON         0.0254
     21 H13        17.8180   62.2287   14.2102 H         1 NON         0.0254
     22 H14        18.5933   62.6510   12.6458 H         1 NON         0.0254
@<TRIPOS>BOND
     1    1    2 1  
     2    2    3 1  
     3    2    4 1  
     4    2    5 1  
     5    5    6 1  
     6    6    7 1  
     7    6    8 1  
     8    1    9 1  
     9    1   10 1  
    10    1   11 1  
    11    3   12 1  
    12    4   13 1  
    13    4   14 1  
    14    4   15 1  
    15    5   16 1  
    16    5   17 1  
    17    6   18 1  
    18    7   19 1  
    19    8   20 1  
    20    8   21 1  
    21    8   22 1  
@<TRIPOS>SUBSTRUCTURE
     1 NON         1

