### 
### Created by X-TOOL on Mon Sep 10 21:12:46 2018
### 

@<TRIPOS>MOLECULE
1hvh_ligand
   83    87     1     0     0
SMALL
GAST_HUCK


@<TRIPOS>ATOM
      1 N11        -7.7330   14.4990   28.2180 N.pl3     1 Q82        -0.0972
      2 O4        -11.2400   18.8550   29.0110 O.3       1 Q82        -0.3863
      3 O5         -9.3790   19.5570   27.1380 O.3       1 Q82        -0.3863
      4 N7         -8.8930   15.9700   26.9000 N.pl3     1 Q82        -0.2749
      5 N2         -9.5020   15.5750   29.1170 N.pl3     1 Q82        -0.2749
      6 C1         -8.6900   15.3420   28.0700 C.cat     1 Q82         0.2850
      7 C2         -9.4320   14.7210   30.3120 C.3       1 Q82         0.0636
      8 C3        -10.5910   16.5490   29.0450 C.3       1 Q82         0.0834
      9 C4        -10.1740   17.9870   28.7120 C.3       1 Q82         0.1111
     10 C5         -9.7940   18.2200   27.2600 C.3       1 Q82         0.1111
     11 C6         -8.6070   17.3900   26.8210 C.3       1 Q82         0.0834
     12 C7         -9.3460   15.2930   25.6750 C.3       1 Q82         0.0636
     13 C20        -9.7070   15.4360   31.6190 C.ar      1 Q82        -0.0247
     14 C21        -8.8250   16.4080   32.0800 C.ar      1 Q82        -0.0645
     15 C22        -8.9710   16.9290   33.3620 C.ar      1 Q82        -0.0646
     16 C23       -10.0620   16.4300   34.2300 C.ar      1 Q82        -0.0245
     17 C24       -10.9210   15.4600   33.7280 C.ar      1 Q82        -0.0646
     18 C25       -10.7260   14.9660   32.4490 C.ar      1 Q82        -0.0645
     19 C31       -11.6470   15.9100   28.1290 C.3       1 Q82         0.0093
     20 C32       -12.2980   14.7000   28.7690 C.ar      1 Q82        -0.0404
     21 C33       -12.0530   13.3850   28.3830 C.ar      1 Q82        -0.0603
     22 C34       -12.6890   12.2550   28.8830 C.ar      1 Q82        -0.0686
     23 C35       -13.6660   12.4320   29.8470 C.ar      1 Q82        -0.0687
     24 C36       -13.9490   13.7290   30.2650 C.ar      1 Q82        -0.0686
     25 C37       -13.2860   14.8480   29.7470 C.ar      1 Q82        -0.0603
     26 C61        -7.3650   17.6340   27.6830 C.3       1 Q82         0.0093
     27 C62        -6.1910   18.1030   26.8580 C.ar      1 Q82        -0.0404
     28 C63        -6.3830   19.0850   25.8940 C.ar      1 Q82        -0.0603
     29 C64        -5.4500   19.2490   24.8740 C.ar      1 Q82        -0.0686
     30 C65        -4.3210   18.4380   24.8280 C.ar      1 Q82        -0.0687
     31 C66        -4.1240   17.4530   25.7890 C.ar      1 Q82        -0.0686
     32 C67        -5.0590   17.2890   26.8070 C.ar      1 Q82        -0.0603
     33 C70        -8.7730   15.8140   24.3550 C.ar      1 Q82        -0.0247
     34 C71        -7.5240   16.1300   24.1720 C.ar      1 Q82        -0.0645
     35 C72        -6.9910   16.6000   22.9740 C.ar      1 Q82        -0.0646
     36 C73        -7.8840   16.7530   21.8110 C.ar      1 Q82        -0.0245
     37 C74        -9.2130   16.4150   22.0240 C.ar      1 Q82        -0.0646
     38 C75        -9.6460   15.9480   23.2680 C.ar      1 Q82        -0.0645
     39 C12        -7.1450   13.9590   27.2000 C.1       1 Q82         0.4300
     40 N13        -6.6260   13.4560   26.2810 N.1       1 Q82        -0.0929
     41 C76        -7.3980   17.2570   20.4840 C.3       1 Q82         0.0751
     42 C26       -10.2490   16.9680   35.6200 C.3       1 Q82         0.0751
     43 O76        -5.9890   17.1720   20.3320 O.3       1 Q82        -0.3836
     44 O26       -11.2680   16.2950   36.3510 O.3       1 Q82        -0.3836
     45 H1         -7.4265   14.2470   29.1685 H         1 Q82         0.3705
     46 H2        -10.9870   19.7476   28.8065 H         1 Q82         0.2100
     47 H3        -10.0911   20.1328   27.3907 H         1 Q82         0.2100
     48 H4         -8.4224   14.2876   30.3646 H         1 Q82         0.0707
     49 H5        -10.1718   13.9146   30.2005 H         1 Q82         0.0707
     50 H6        -11.0355   16.6097   30.0493 H         1 Q82         0.0644
     51 H7         -9.3076   18.2422   29.3399 H         1 Q82         0.0649
     52 H8        -10.6595   18.0123   26.6136 H         1 Q82         0.0649
     53 H9         -8.3752   17.6542   25.7787 H         1 Q82         0.0644
     54 H10       -10.4406   15.3893   25.6252 H         1 Q82         0.0707
     55 H11        -9.0749   14.2304   25.7607 H         1 Q82         0.0707
     56 H12        -8.0237   16.7597   31.4403 H         1 Q82         0.0540
     57 H13        -8.2920   17.6934   33.7221 H         1 Q82         0.0540
     58 H14       -11.7402   15.0916   34.3348 H         1 Q82         0.0540
     59 H15       -11.3861   14.1891   32.0805 H         1 Q82         0.0540
     60 H16       -11.1623   15.5982   27.1921 H         1 Q82         0.0453
     61 H17       -12.4244   16.6564   27.9089 H         1 Q82         0.0453
     62 H18       -11.2966   13.2281   27.6225 H         1 Q82         0.0557
     63 H19       -12.4276   11.2645   28.5285 H         1 Q82         0.0599
     64 H20       -14.1962   11.5839   30.2650 H         1 Q82         0.0559
     65 H21       -14.7119   13.8785   31.0205 H         1 Q82         0.0599
     66 H22       -13.5410   15.8380   30.1075 H         1 Q82         0.0557
     67 H23        -7.0925   16.6955   28.1880 H         1 Q82         0.0453
     68 H24        -7.5996   18.4009   28.4359 H         1 Q82         0.0453
     69 H25        -7.2585   19.7228   25.9361 H         1 Q82         0.0557
     70 H26        -5.6033   20.0085   24.1159 H         1 Q82         0.0599
     71 H27        -3.5908   18.5747   24.0386 H         1 Q82         0.0559
     72 H28        -3.2476   16.8165   25.7458 H         1 Q82         0.0599
     73 H29        -4.9072   16.5266   27.5624 H         1 Q82         0.0557
     74 H30        -6.8492   16.0194   25.0131 H         1 Q82         0.0540
     75 H31        -5.9387   16.8488   22.8982 H         1 Q82         0.0540
     76 H32        -9.9258   16.5147   21.2134 H         1 Q82         0.0540
     77 H33       -10.6890   15.6814   23.3955 H         1 Q82         0.0540
     78 H34        -7.6973   18.3104   20.3798 H         1 Q82         0.0708
     79 H35        -7.8712   16.6611   19.6897 H         1 Q82         0.0708
     80 H36       -10.5152   18.0330   35.5495 H         1 Q82         0.0708
     81 H37        -9.2999   16.8626   36.1660 H         1 Q82         0.0708
     82 H38        -5.7433   17.5041   19.4765 H         1 Q82         0.2124
     83 H39       -11.3395   16.6773   37.2177 H         1 Q82         0.2124
@<TRIPOS>BOND
     1    1   39 1  
     2    1    6 ar 
     3    6    4 ar 
     4    6    5 ar 
     5    5    7 1  
     6    5    8 1  
     7    8   19 1  
     8    8    9 1  
     9    9    2 1  
    10    9   10 1  
    11   10    3 1  
    12   10   11 1  
    13   11    4 1  
    14   11   26 1  
    15   26   27 1  
    16   27   32 ar 
    17   27   28 ar 
    18   28   29 ar 
    19   29   30 ar 
    20   30   31 ar 
    21   31   32 ar 
    22    4   12 1  
    23   12   33 1  
    24   33   38 ar 
    25   33   34 ar 
    26   34   35 ar 
    27   35   36 ar 
    28   36   41 1  
    29   36   37 ar 
    30   37   38 ar 
    31   41   43 1  
    32   19   20 1  
    33   20   25 ar 
    34   20   21 ar 
    35   21   22 ar 
    36   22   23 ar 
    37   23   24 ar 
    38   24   25 ar 
    39    7   13 1  
    40   13   18 ar 
    41   13   14 ar 
    42   14   15 ar 
    43   15   16 ar 
    44   16   42 1  
    45   16   17 ar 
    46   17   18 ar 
    47   42   44 1  
    48   39   40 3  
    49    1   45 1  
    50    2   46 1  
    51    3   47 1  
    52    7   48 1  
    53    7   49 1  
    54    8   50 1  
    55    9   51 1  
    56   10   52 1  
    57   11   53 1  
    58   12   54 1  
    59   12   55 1  
    60   14   56 1  
    61   15   57 1  
    62   17   58 1  
    63   18   59 1  
    64   19   60 1  
    65   19   61 1  
    66   21   62 1  
    67   22   63 1  
    68   23   64 1  
    69   24   65 1  
    70   25   66 1  
    71   26   67 1  
    72   26   68 1  
    73   28   69 1  
    74   29   70 1  
    75   30   71 1  
    76   31   72 1  
    77   32   73 1  
    78   34   74 1  
    79   35   75 1  
    80   37   76 1  
    81   38   77 1  
    82   41   78 1  
    83   41   79 1  
    84   42   80 1  
    85   42   81 1  
    86   43   82 1  
    87   44   83 1  
@<TRIPOS>SUBSTRUCTURE
     1 Q82         1

