### 
### Created by X-TOOL on Mon Sep 10 21:12:45 2018
### 

@<TRIPOS>MOLECULE
1hvi_ligand
  116   119     1     0     0
SMALL
GAST_HUCK


@<TRIPOS>ATOM
      1 C1          3.4840    3.3320   10.7440 C.2       1 A77         0.2640
      2 O2          3.3360    4.0240   11.7300 O.2       1 A77        -0.4004
      3 N3          3.9860    3.8340    9.5980 N.am      1 A77        -0.2488
      4 C4          4.1860    3.0150    8.3970 C.3       1 A77         0.0254
      5 C5          4.3660    5.2480    9.5330 C.3       1 A77         0.0828
      6 C6          5.8600    5.4890    9.5740 C.ar      1 A77         0.0502
      7 C7          6.5950    5.5550    8.3900 C.ar      1 A77        -0.0304
      8 N8          6.4040    5.6810   10.7780 N.ar      1 A77        -0.2961
      9 C9          7.9510    5.8620    8.4900 C.ar      1 A77        -0.0488
     10 C10         7.7020    5.9660   10.8620 C.ar      1 A77         0.0028
     11 C11         8.5250    6.0770    9.7510 C.ar      1 A77        -0.0410
     12 N21         3.1650    2.0470   10.7480 N.am      1 A77        -0.2514
     13 C22         2.7860    1.2980   11.9600 C.3       1 A77         0.1335
     14 C23         3.9320    0.3780   12.3800 C.2       1 A77         0.2021
     15 O24         4.0280   -0.7680   11.9740 O.2       1 A77        -0.3945
     16 C25         1.4690    0.5260   11.7400 C.3       1 A77        -0.0065
     17 C26         1.0410   -0.2680   12.9880 C.3       1 A77        -0.0585
     18 C27         0.3340    1.4570   11.2930 C.3       1 A77        -0.0585
     19 N37         4.8470    0.9370   13.1830 N.am      1 A77        -0.2775
     20 C38         6.1390    0.2940   13.5540 C.3       1 A77         0.0799
     21 C39         7.2770    1.2140   13.0810 C.3       1 A77         0.0065
     22 C40         7.5800    1.1300   11.6220 C.ar      1 A77        -0.0408
     23 C41         7.1840    2.1490   10.7610 C.ar      1 A77        -0.0603
     24 C42         7.4540    2.0420    9.3930 C.ar      1 A77        -0.0686
     25 C43         8.1290    0.9290    8.8970 C.ar      1 A77        -0.0687
     26 C44         8.5340   -0.0800    9.7830 C.ar      1 A77        -0.0686
     27 C45         8.2550    0.0170   11.1470 C.ar      1 A77        -0.0603
     28 C46         6.2460    0.1640   15.0760 C.3       1 A77         0.1079
     29 O47         7.4730   -0.4920   15.3580 O.3       1 A77        -0.3867
     30 O48         5.1290   -0.1720   17.2130 O.3       1 A77        -0.3867
     31 C49         5.0120   -0.4270   15.8130 C.3       1 A77         0.1079
     32 N50         5.7540   -2.8020   16.2090 N.am      1 A77        -0.2775
     33 C51         4.7380   -1.9260   15.5940 C.3       1 A77         0.0799
     34 C52         3.3490   -2.3270   16.1270 C.3       1 A77         0.0065
     35 C53         3.0720   -3.8220   16.0900 C.ar      1 A77        -0.0408
     36 C54         3.2530   -4.6130   17.2380 C.ar      1 A77        -0.0603
     37 C55         3.0440   -6.0000   17.1780 C.ar      1 A77        -0.0686
     38 C56         2.6440   -6.6190   15.9850 C.ar      1 A77        -0.0687
     39 C57         2.4420   -5.8380   14.8450 C.ar      1 A77        -0.0686
     40 C58         2.6580   -4.4490   14.8990 C.ar      1 A77        -0.0603
     41 N81         6.9100   -5.9190   16.6840 N.am      1 A77        -0.2514
     42 C82         7.4180   -4.5880   16.4020 C.3       1 A77         0.1335
     43 C83         6.4320   -3.7550   15.5590 C.2       1 A77         0.2021
     44 O84         6.3130   -3.9440   14.3650 O.2       1 A77        -0.3945
     45 C85         8.8090   -4.6600   15.7320 C.3       1 A77        -0.0065
     46 C86         9.3660   -3.2530   15.4630 C.3       1 A77        -0.0585
     47 C87         9.8170   -5.4220   16.5890 C.3       1 A77        -0.0585
     48 C97         6.7680   -6.3930   17.9220 C.2       1 A77         0.2640
     49 O98         7.1430   -5.7640   18.9010 O.2       1 A77        -0.4004
     50 N99         6.2260   -7.6350   18.0230 N.am      1 A77        -0.2488
     51 C2          5.7910   -8.3920   16.8390 C.3       1 A77         0.0254
     52 C3          5.9940   -8.2530   19.3450 C.3       1 A77         0.0828
     53 C8          4.6440   -7.8700   19.9060 C.ar      1 A77         0.0502
     54 C12         3.5550   -8.7340   19.7710 C.ar      1 A77        -0.0304
     55 N10         4.5550   -6.6680   20.5110 N.ar      1 A77        -0.2961
     56 C13         2.3170   -8.3440   20.2820 C.ar      1 A77        -0.0488
     57 C14         3.3550   -6.2960   20.9830 C.ar      1 A77         0.0028
     58 C15         2.2110   -7.0980   20.9010 C.ar      1 A77        -0.0410
     59 H1          4.6040    3.6389    7.5932 H         1 A77         0.0485
     60 H2          3.2213    2.5975    8.0730 H         1 A77         0.0485
     61 H3          4.8827    2.1947    8.6244 H         1 A77         0.0485
     62 H4          3.9086    5.7683   10.3875 H         1 A77         0.0713
     63 H5          3.9739    5.6683    8.5951 H         1 A77         0.0713
     64 H6          6.1289    5.3743    7.4281 H         1 A77         0.0652
     65 H7          8.5596    5.9343    7.5959 H         1 A77         0.0719
     66 H8          8.1354    6.1183   11.8438 H         1 A77         0.0803
     67 H9          9.5760    6.3216    9.8541 H         1 A77         0.0652
     68 H10         3.1822    1.5554    9.8774 H         1 A77         0.1877
     69 H11         2.6180    2.0211   12.7717 H         1 A77         0.0799
     70 H12         1.6462   -0.1976   10.9307 H         1 A77         0.0342
     71 H13         0.1001   -0.7986   12.7801 H         1 A77         0.0234
     72 H14         0.8932    0.4241   13.8301 H         1 A77         0.0234
     73 H15         1.8238   -0.9967   13.2453 H         1 A77         0.0234
     74 H16         0.6502    2.0188   10.4017 H         1 A77         0.0234
     75 H17         0.0957    2.1605   12.1044 H         1 A77         0.0234
     76 H18        -0.5574    0.8591   11.0524 H         1 A77         0.0234
     77 H19         4.6505    1.8433   13.5572 H         1 A77         0.1857
     78 H20         6.2190   -0.6963   13.0819 H         1 A77         0.0605
     79 H21         8.1879    0.9458   13.6363 H         1 A77         0.0449
     80 H22         6.9978    2.2522   13.3139 H         1 A77         0.0449
     81 H23         6.6692    3.0207   11.1485 H         1 A77         0.0557
     82 H24         7.1371    2.8275    8.7166 H         1 A77         0.0599
     83 H25         8.3391    0.8436    7.8370 H         1 A77         0.0559
     84 H26         9.0689   -0.9436    9.4047 H         1 A77         0.0599
     85 H27         8.5628   -0.7692   11.8269 H         1 A77         0.0557
     86 H28         6.3410    1.1885   15.4651 H         1 A77         0.0645
     87 H29         7.5704   -0.5887   16.2981 H         1 A77         0.2100
     88 H30         5.2982    0.7524   17.3523 H         1 A77         0.2100
     89 H31         4.1308    0.1145   15.4386 H         1 A77         0.0645
     90 H32         5.9498   -2.6742   17.1813 H         1 A77         0.1857
     91 H33         4.7533   -2.1052   14.5088 H         1 A77         0.0605
     92 H34         2.5865   -1.8202   15.5172 H         1 A77         0.0449
     93 H35         3.2692   -1.9876   17.1703 H         1 A77         0.0449
     94 H36         3.5545   -4.1512   18.1712 H         1 A77         0.0557
     95 H37         3.1941   -6.6015   18.0673 H         1 A77         0.0599
     96 H38         2.4933   -7.6918   15.9481 H         1 A77         0.0559
     97 H39         2.1192   -6.3015   13.9198 H         1 A77         0.0599
     98 H40         2.5031   -3.8509   14.0083 H         1 A77         0.0557
     99 H41         6.6554   -6.5060   15.9155 H         1 A77         0.1877
    100 H42         7.5406   -4.0722   17.3658 H         1 A77         0.0799
    101 H43         8.6978   -5.1855   14.7721 H         1 A77         0.0342
    102 H44        10.3543   -3.3348   14.9870 H         1 A77         0.0234
    103 H45         9.4610   -2.7082   16.4139 H         1 A77         0.0234
    104 H46         8.6815   -2.7090   14.7956 H         1 A77         0.0234
    105 H47         9.4350   -6.4333   16.7923 H         1 A77         0.0234
    106 H48         9.9674   -4.8890   17.5394 H         1 A77         0.0234
    107 H49        10.7748   -5.4928   16.0528 H         1 A77         0.0234
    108 H50         5.3862   -9.3650   17.1543 H         1 A77         0.0485
    109 H51         6.6494   -8.5514   16.1699 H         1 A77         0.0485
    110 H52         5.0120   -7.8257   16.3075 H         1 A77         0.0485
    111 H53         6.7781   -7.9167   20.0394 H         1 A77         0.0713
    112 H54         6.0406   -9.3471   19.2413 H         1 A77         0.0713
    113 H55         3.6700   -9.6921   19.2771 H         1 A77         0.0652
    114 H56         1.4547   -8.9958   20.1999 H         1 A77         0.0719
    115 H57         3.2672   -5.3229   21.4526 H         1 A77         0.0803
    116 H58         1.2653   -6.7593   21.3086 H         1 A77         0.0652
@<TRIPOS>BOND
     1    1    2 2  
     2    1    3 am 
     3   12    1 am 
     4    3    4 1  
     5    3    5 1  
     6    5    6 1  
     7    6    7 ar 
     8    6    8 ar 
     9    7    9 ar 
    10    8   10 ar 
    11    9   11 ar 
    12   10   11 ar 
    13   13   12 1  
    14   14   13 1  
    15   13   16 1  
    16   14   15 2  
    17   19   14 am 
    18   16   17 1  
    19   16   18 1  
    20   20   19 1  
    21   20   21 1  
    22   28   20 1  
    23   21   22 1  
    24   22   23 ar 
    25   22   27 ar 
    26   23   24 ar 
    27   24   25 ar 
    28   26   25 ar 
    29   27   26 ar 
    30   28   29 1  
    31   31   28 1  
    32   33   31 1  
    33   33   34 1  
    34   34   35 1  
    35   35   36 ar 
    36   35   40 ar 
    37   36   37 ar 
    38   37   38 ar 
    39   39   38 ar 
    40   40   39 ar 
    41   42   41 1  
    42   41   48 am 
    43   43   42 1  
    44   42   45 1  
    45   43   44 2  
    46   45   46 1  
    47   45   47 1  
    48   48   49 2  
    49   48   50 am 
    50   50   51 1  
    51   50   52 1  
    52   52   53 1  
    53   53   54 ar 
    54   53   55 ar 
    55   54   56 ar 
    56   55   57 ar 
    57   56   58 ar 
    58   57   58 ar 
    59   32   43 am 
    60   33   32 1  
    61   31   30 1  
    62    4   59 1  
    63    4   60 1  
    64    4   61 1  
    65    5   62 1  
    66    5   63 1  
    67    7   64 1  
    68    9   65 1  
    69   10   66 1  
    70   11   67 1  
    71   12   68 1  
    72   13   69 1  
    73   16   70 1  
    74   17   71 1  
    75   17   72 1  
    76   17   73 1  
    77   18   74 1  
    78   18   75 1  
    79   18   76 1  
    80   19   77 1  
    81   20   78 1  
    82   21   79 1  
    83   21   80 1  
    84   23   81 1  
    85   24   82 1  
    86   25   83 1  
    87   26   84 1  
    88   27   85 1  
    89   28   86 1  
    90   29   87 1  
    91   30   88 1  
    92   31   89 1  
    93   32   90 1  
    94   33   91 1  
    95   34   92 1  
    96   34   93 1  
    97   36   94 1  
    98   37   95 1  
    99   38   96 1  
   100   39   97 1  
   101   40   98 1  
   102   41   99 1  
   103   42  100 1  
   104   45  101 1  
   105   46  102 1  
   106   46  103 1  
   107   46  104 1  
   108   47  105 1  
   109   47  106 1  
   110   47  107 1  
   111   51  108 1  
   112   51  109 1  
   113   51  110 1  
   114   52  111 1  
   115   52  112 1  
   116   54  113 1  
   117   56  114 1  
   118   57  115 1  
   119   58  116 1  
@<TRIPOS>SUBSTRUCTURE
     1 A77         1

