### 
### Created by X-TOOL on Mon Sep 10 21:12:45 2018
### 

@<TRIPOS>MOLECULE
1hvj_ligand
  115   118     1     0     0
SMALL
GAST_HUCK


@<TRIPOS>ATOM
      1 C1          3.5270    3.3460   10.7580 C.2       1 A78         0.2640
      2 O2          3.3350    4.0090   11.7660 O.2       1 A78        -0.4004
      3 N3          4.0100    3.9090    9.6330 N.am      1 A78        -0.2488
      4 C4          4.2050    3.1390    8.4010 C.3       1 A78         0.0254
      5 C5          4.4000    5.3360    9.6910 C.3       1 A78         0.0828
      6 C6          5.8860    5.5810    9.5290 C.ar      1 A78         0.0502
      7 C7          6.4060    5.7230    8.2420 C.ar      1 A78        -0.0304
      8 N8          6.6350    5.6520   10.6390 N.ar      1 A78        -0.2961
      9 C9          7.7800    5.9410    8.1120 C.ar      1 A78        -0.0488
     10 C10         7.9520    5.8470   10.5070 C.ar      1 A78         0.0028
     11 C11         8.5730    5.9970    9.2640 C.ar      1 A78        -0.0410
     12 N22         3.2690    2.0450   10.7340 N.am      1 A78        -0.2514
     13 C23         2.9070    1.3460   11.9890 C.3       1 A78         0.1335
     14 C24         4.0640    0.4480   12.4540 C.2       1 A78         0.2020
     15 O25         4.1130   -0.6900   12.0270 O.2       1 A78        -0.3945
     16 C26         1.5820    0.5560   11.7900 C.3       1 A78        -0.0065
     17 C27         1.1550   -0.2390   13.0310 C.3       1 A78        -0.0585
     18 C28         0.4170    1.4470   11.3060 C.3       1 A78        -0.0585
     19 N38         4.9740    0.9640   13.3080 N.am      1 A78        -0.2800
     20 C39         6.1680    0.2220   13.7830 C.3       1 A78         0.0540
     21 C40         7.4380    0.9690   13.4190 C.3       1 A78         0.0040
     22 C41         7.6880    0.9710   11.9480 C.ar      1 A78        -0.0408
     23 C42         7.2460    2.0350   11.1560 C.ar      1 A78        -0.0603
     24 C43         7.4670    2.0110    9.7730 C.ar      1 A78        -0.0686
     25 C44         8.1230    0.9320    9.1940 C.ar      1 A78        -0.0687
     26 C45         8.5720   -0.1250    9.9970 C.ar      1 A78        -0.0686
     27 C46         8.3570   -0.1110   11.3790 C.ar      1 A78        -0.0603
     28 C47         6.2000    0.1220   15.2830 C.3       1 A78         0.0004
     29 O48         5.1250   -0.2650   17.3020 O.3       1 A78        -0.3893
     30 C49         4.9470   -0.4390   15.9060 C.3       1 A78         0.0821
     31 N50         5.8120   -2.7360   16.1800 N.am      1 A78        -0.2776
     32 C51         4.7250   -1.9340   15.6160 C.3       1 A78         0.0774
     33 C52         3.3720   -2.4220   16.1650 C.3       1 A78         0.0064
     34 C53         3.1250   -3.9070   16.0270 C.ar      1 A78        -0.0408
     35 C54         3.3910   -4.7760   17.0980 C.ar      1 A78        -0.0603
     36 C55         3.1550   -6.1500   16.9550 C.ar      1 A78        -0.0686
     37 C56         2.6560   -6.6690   15.7520 C.ar      1 A78        -0.0687
     38 C57         2.3840   -5.8090   14.6860 C.ar      1 A78        -0.0686
     39 C58         2.6190   -4.4280   14.8220 C.ar      1 A78        -0.0603
     40 N81         7.0530   -5.8530   16.7090 N.am      1 A78        -0.2514
     41 C82         7.4760   -4.4810   16.3820 C.3       1 A78         0.1335
     42 C83         6.4510   -3.7120   15.5290 C.2       1 A78         0.2021
     43 O84         6.2670   -3.9610   14.3500 O.2       1 A78        -0.3945
     44 C85         8.8220   -4.4670   15.6440 C.3       1 A78        -0.0065
     45 C86         9.2900   -3.0270   15.3250 C.3       1 A78        -0.0585
     46 C87         9.9000   -5.1910   16.4690 C.3       1 A78        -0.0585
     47 C97         6.9290   -6.3640   17.9260 C.2       1 A78         0.2640
     48 O98         7.2550   -5.7600   18.9360 O.2       1 A78        -0.4004
     49 N99         6.4020   -7.6110   17.9990 N.am      1 A78        -0.2488
     50 C2          6.0120   -8.3800   16.8120 C.3       1 A78         0.0254
     51 C3          6.1420   -8.2340   19.2990 C.3       1 A78         0.0828
     52 C8          4.8150   -7.8110   19.8750 C.ar      1 A78         0.0502
     53 C12         3.7140   -8.6790   19.8170 C.ar      1 A78        -0.0304
     54 N10         4.7670   -6.5870   20.4230 N.ar      1 A78        -0.2961
     55 C13         2.5000   -8.2420   20.3570 C.ar      1 A78        -0.0488
     56 C14         3.5920   -6.1840   20.9340 C.ar      1 A78         0.0028
     57 C15         2.4320   -6.9690   20.9320 C.ar      1 A78        -0.0410
     58 H1          4.6059    3.7977    7.6165 H         1 A78         0.0485
     59 H2          3.2414    2.7222    8.0727 H         1 A78         0.0485
     60 H3          4.9140    2.3194    8.5892 H         1 A78         0.0485
     61 H4          4.0882    5.7394   10.6657 H         1 A78         0.0713
     62 H5          3.8727    5.8706    8.8872 H         1 A78         0.0713
     63 H6          5.7641    5.6660    7.3703 H         1 A78         0.0652
     64 H7          8.2260    6.0651    7.1318 H         1 A78         0.0719
     65 H8          8.5629    5.8905   11.4014 H         1 A78         0.0803
     66 H9          9.6434    6.1530    9.1937 H         1 A78         0.0652
     67 H10         3.3186    1.5386    9.8731 H         1 A78         0.1877
     68 H11         2.7350    2.1026   12.7687 H         1 A78         0.0799
     69 H12         1.7768   -0.1771   10.9934 H         1 A78         0.0342
     70 H13         0.2153   -0.7706   12.8205 H         1 A78         0.0234
     71 H14         1.0050    0.4507   13.8746 H         1 A78         0.0234
     72 H15         1.9385   -0.9672   13.2875 H         1 A78         0.0234
     73 H16         0.7328    2.0124   10.4168 H         1 A78         0.0234
     74 H17         0.1351    2.1482   12.1053 H         1 A78         0.0234
     75 H18        -0.4465    0.8151   11.0511 H         1 A78         0.0234
     76 H19         4.8356    1.8976   13.6385 H         1 A78         0.1856
     77 H20         6.1699   -0.7824   13.3344 H         1 A78         0.0579
     78 H21         8.2892    0.4872   13.9224 H         1 A78         0.0448
     79 H22         7.3486    2.0094   13.7646 H         1 A78         0.0448
     80 H23         6.7341    2.8755   11.6106 H         1 A78         0.0557
     81 H24         7.1264    2.8338    9.1550 H         1 A78         0.0599
     82 H25         8.2873    0.9077    8.1228 H         1 A78         0.0559
     83 H26         9.0909   -0.9614    9.5428 H         1 A78         0.0599
     84 H27         8.7056   -0.9296   11.9982 H         1 A78         0.0557
     85 H28         6.3622    1.1310   15.6899 H         1 A78         0.0315
     86 H29         7.0423   -0.5269   15.5648 H         1 A78         0.0315
     87 H30         5.2628    0.6559   17.4902 H         1 A78         0.2099
     88 H31         4.0723    0.1265   15.5522 H         1 A78         0.0619
     89 H32         6.0962   -2.5395   17.1184 H         1 A78         0.1857
     90 H33         4.7225   -2.0726   14.5248 H         1 A78         0.0604
     91 H34         2.5734   -1.8917   15.6255 H         1 A78         0.0449
     92 H35         3.3250   -2.1661   17.2338 H         1 A78         0.0449
     93 H36         3.7776   -4.3851   18.0322 H         1 A78         0.0557
     94 H37         3.3604   -6.8185   17.7832 H         1 A78         0.0599
     95 H38         2.4820   -7.7340   15.6497 H         1 A78         0.0559
     96 H39         1.9926   -6.2043   13.7556 H         1 A78         0.0599
     97 H40         2.4088   -3.7617   13.9932 H         1 A78         0.0557
     98 H41         6.8391   -6.4562   15.9406 H         1 A78         0.1877
     99 H42         7.5979   -3.9414   17.3327 H         1 A78         0.0799
    100 H43         8.6932   -5.0043   14.6929 H         1 A78         0.0342
    101 H44        10.2549   -3.0634   14.7980 H         1 A78         0.0234
    102 H45         9.4052   -2.4628   16.2622 H         1 A78         0.0234
    103 H46         8.5428   -2.5312   14.6880 H         1 A78         0.0234
    104 H47         9.5641   -6.2140   16.6939 H         1 A78         0.0234
    105 H48        10.0699   -4.6459   17.4092 H         1 A78         0.0234
    106 H49        10.8368   -5.2308   15.8938 H         1 A78         0.0234
    107 H50         5.6126   -9.3567   17.1228 H         1 A78         0.0485
    108 H51         6.8909   -8.5314   16.1681 H         1 A78         0.0485
    109 H52         5.2400   -7.8286   16.2552 H         1 A78         0.0485
    110 H53         6.9406   -7.9437   19.9976 H         1 A78         0.0713
    111 H54         6.1426   -9.3270   19.1751 H         1 A78         0.0713
    112 H55         3.8019   -9.6609   19.3662 H         1 A78         0.0652
    113 H56         1.6246   -8.8808   20.3302 H         1 A78         0.0719
    114 H57         3.5384   -5.1944   21.3732 H         1 A78         0.0803
    115 H58         1.5084   -6.6005   21.3636 H         1 A78         0.0652
@<TRIPOS>BOND
     1    1    2 2  
     2    1    3 am 
     3   12    1 am 
     4    3    4 1  
     5    3    5 1  
     6    5    6 1  
     7    6    7 ar 
     8    6    8 ar 
     9    7    9 ar 
    10    8   10 ar 
    11    9   11 ar 
    12   10   11 ar 
    13   13   12 1  
    14   14   13 1  
    15   13   16 1  
    16   14   15 2  
    17   19   14 am 
    18   16   17 1  
    19   16   18 1  
    20   20   19 1  
    21   20   21 1  
    22   28   20 1  
    23   21   22 1  
    24   22   23 ar 
    25   22   27 ar 
    26   23   24 ar 
    27   24   25 ar 
    28   26   25 ar 
    29   27   26 ar 
    30   30   28 1  
    31   32   30 1  
    32   32   33 1  
    33   33   34 1  
    34   34   35 ar 
    35   34   39 ar 
    36   35   36 ar 
    37   36   37 ar 
    38   38   37 ar 
    39   39   38 ar 
    40   41   40 1  
    41   40   47 am 
    42   42   41 1  
    43   41   44 1  
    44   42   43 2  
    45   44   45 1  
    46   44   46 1  
    47   47   48 2  
    48   47   49 am 
    49   49   50 1  
    50   49   51 1  
    51   51   52 1  
    52   52   53 ar 
    53   52   54 ar 
    54   53   55 ar 
    55   54   56 ar 
    56   55   57 ar 
    57   56   57 ar 
    58   31   42 am 
    59   32   31 1  
    60   30   29 1  
    61    4   58 1  
    62    4   59 1  
    63    4   60 1  
    64    5   61 1  
    65    5   62 1  
    66    7   63 1  
    67    9   64 1  
    68   10   65 1  
    69   11   66 1  
    70   12   67 1  
    71   13   68 1  
    72   16   69 1  
    73   17   70 1  
    74   17   71 1  
    75   17   72 1  
    76   18   73 1  
    77   18   74 1  
    78   18   75 1  
    79   19   76 1  
    80   20   77 1  
    81   21   78 1  
    82   21   79 1  
    83   23   80 1  
    84   24   81 1  
    85   25   82 1  
    86   26   83 1  
    87   27   84 1  
    88   28   85 1  
    89   28   86 1  
    90   29   87 1  
    91   30   88 1  
    92   31   89 1  
    93   32   90 1  
    94   33   91 1  
    95   33   92 1  
    96   35   93 1  
    97   36   94 1  
    98   37   95 1  
    99   38   96 1  
   100   39   97 1  
   101   40   98 1  
   102   41   99 1  
   103   44  100 1  
   104   45  101 1  
   105   45  102 1  
   106   45  103 1  
   107   46  104 1  
   108   46  105 1  
   109   46  106 1  
   110   50  107 1  
   111   50  108 1  
   112   50  109 1  
   113   51  110 1  
   114   51  111 1  
   115   53  112 1  
   116   55  113 1  
   117   56  114 1  
   118   57  115 1  
@<TRIPOS>SUBSTRUCTURE
     1 A78         1

