### 
### Created by X-TOOL on Mon Sep 10 21:12:45 2018
### 

@<TRIPOS>MOLECULE
1hvk_ligand
  116   119     1     0     0
SMALL
GAST_HUCK


@<TRIPOS>ATOM
      1 C1          3.4420    3.3640   10.6640 C.2       1 A79         0.2640
      2 O2          3.1030    4.0650   11.6060 O.2       1 A79        -0.4004
      3 N3          4.1080    3.8760    9.6230 N.am      1 A79        -0.2488
      4 C4          4.6590    3.0340    8.5660 C.3       1 A79         0.0254
      5 C5          4.3760    5.3220    9.6130 C.3       1 A79         0.0828
      6 C6          5.7860    5.6900    9.9970 C.ar      1 A79         0.0502
      7 C7          6.6870    6.0180    8.9940 C.ar      1 A79        -0.0304
      8 N8          6.0940    5.7110   11.2940 N.ar      1 A79        -0.2961
      9 C9          7.9610    6.3910    9.3940 C.ar      1 A79        -0.0488
     10 C10         7.3140    6.0700   11.6630 C.ar      1 A79         0.0028
     11 C11         8.2870    6.4200   10.7470 C.ar      1 A79        -0.0410
     12 N21         3.1570    2.0630   10.6230 N.am      1 A79        -0.2514
     13 C22         2.5380    1.3810   11.7760 C.3       1 A79         0.1335
     14 C23         3.5500    0.4420   12.4210 C.2       1 A79         0.2021
     15 O24         3.6830   -0.7230   12.0840 O.2       1 A79        -0.3945
     16 C25         1.1890    0.6750   11.4320 C.3       1 A79        -0.0065
     17 C26         0.1900    1.6100   10.7090 C.3       1 A79        -0.0585
     18 C27         0.5290    0.0770   12.6750 C.3       1 A79        -0.0585
     19 N37         4.2870    1.0030   13.3740 N.am      1 A79        -0.2775
     20 C38         5.2470    0.2310   14.1980 C.3       1 A79         0.0799
     21 C39         6.6590    0.8140   14.1100 C.3       1 A79         0.0065
     22 C40         7.1750    0.9510   12.7060 C.ar      1 A79        -0.0408
     23 C41         7.6990   -0.1700   12.0450 C.ar      1 A79        -0.0603
     24 C42         8.1810   -0.0360   10.7380 C.ar      1 A79        -0.0686
     25 C43         8.1250    1.2070   10.0940 C.ar      1 A79        -0.0687
     26 C44         7.6020    2.3230   10.7530 C.ar      1 A79        -0.0686
     27 C45         7.1270    2.1980   12.0640 C.ar      1 A79        -0.0603
     28 C46         4.7040    0.1060   15.6470 C.3       1 A79         0.1079
     29 O47         4.7720    1.3930   16.2230 O.3       1 A79        -0.3867
     30 O48         5.2450   -0.8000   17.8600 O.3       1 A79        -0.3867
     31 C49         5.4110   -0.9690   16.4710 C.3       1 A79         0.1079
     32 N50         5.8480   -3.3620   16.5460 N.am      1 A79        -0.2775
     33 C51         4.8840   -2.3660   16.1080 C.3       1 A79         0.0799
     34 C52         3.4900   -2.7020   16.6590 C.3       1 A79         0.0065
     35 C53         3.0970   -4.1240   16.3490 C.ar      1 A79        -0.0408
     36 C54         2.5550   -4.4390   15.0980 C.ar      1 A79        -0.0603
     37 C55         2.2680   -5.7770   14.7770 C.ar      1 A79        -0.0686
     38 C56         2.5240   -6.7940   15.7040 C.ar      1 A79        -0.0687
     39 C57         3.0480   -6.4830   16.9610 C.ar      1 A79        -0.0686
     40 C58         3.3320   -5.1530   17.2930 C.ar      1 A79        -0.0603
     41 N81         7.0960   -6.2180   16.8450 N.am      1 A79        -0.2514
     42 C82         7.6370   -4.9150   16.4650 C.3       1 A79         0.1335
     43 C83         6.6290   -4.0560   15.7260 C.2       1 A79         0.2021
     44 O84         6.5580   -3.9890   14.5120 O.2       1 A79        -0.3945
     45 C85         8.9600   -5.0190   15.7100 C.3       1 A79        -0.0065
     46 C86         9.9270   -5.8680   16.5510 C.3       1 A79        -0.0585
     47 C87         9.5560   -3.6280   15.4470 C.3       1 A79        -0.0585
     48 C97         6.8980   -6.6250   18.1010 C.2       1 A79         0.2640
     49 O98         7.2170   -5.9320   19.0590 O.2       1 A79        -0.4004
     50 N99         6.3220   -7.8510   18.2480 N.am      1 A79        -0.2488
     51 C2          5.8680   -8.6360   17.0970 C.3       1 A79         0.0254
     52 C3          6.0170   -8.3880   19.5770 C.3       1 A79         0.0828
     53 C8          4.6530   -7.9530   20.0750 C.ar      1 A79         0.0502
     54 C12         3.5500   -8.8050   19.9280 C.ar      1 A79        -0.0304
     55 N10         4.5730   -6.7420   20.6480 N.ar      1 A79        -0.2961
     56 C13         2.3010   -8.3770   20.3930 C.ar      1 A79        -0.0488
     57 C14         3.3660   -6.3450   21.0900 C.ar      1 A79         0.0028
     58 C15         2.2070   -7.1250   20.9900 C.ar      1 A79        -0.0410
     59 H1          5.1614    3.6656    7.8186 H         1 A79         0.0485
     60 H2          3.8458    2.4717    8.0838 H         1 A79         0.0485
     61 H3          5.3851    2.3301    8.9989 H         1 A79         0.0485
     62 H4          3.6878    5.8056   10.3218 H         1 A79         0.0713
     63 H5          4.1842    5.7017    8.5986 H         1 A79         0.0713
     64 H6          6.4079    5.9842    7.9471 H         1 A79         0.0652
     65 H7          8.7041    6.6604    8.6522 H         1 A79         0.0719
     66 H8          7.5573    6.0899   12.7192 H         1 A79         0.0803
     67 H9          9.2792    6.7099   11.0735 H         1 A79         0.0652
     68 H10         3.3661    1.5399    9.7968 H         1 A79         0.1877
     69 H11         2.2999    2.1577   12.5176 H         1 A79         0.0799
     70 H12         1.4228   -0.1528   10.7464 H         1 A79         0.0342
     71 H13        -0.7375    1.0592   10.4935 H         1 A79         0.0234
     72 H14         0.6342    1.9629    9.7666 H         1 A79         0.0234
     73 H15        -0.0370    2.4724   11.3530 H         1 A79         0.0234
     74 H16         1.2424   -0.5866   13.1856 H         1 A79         0.0234
     75 H17        -0.3593   -0.4994   12.3772 H         1 A79         0.0234
     76 H18         0.2292    0.8867   13.3565 H         1 A79         0.0234
     77 H19         4.1901    1.9841   13.5416 H         1 A79         0.1857
     78 H20         5.2984   -0.7864   13.7830 H         1 A79         0.0605
     79 H21         7.3412    0.1547   14.6668 H         1 A79         0.0449
     80 H22         6.6516    1.8109   14.5749 H         1 A79         0.0449
     81 H23         7.7303   -1.1325   12.5427 H         1 A79         0.0557
     82 H24         8.5979   -0.8943   10.2237 H         1 A79         0.0599
     83 H25         8.4898    1.3038    9.0778 H         1 A79         0.0559
     84 H26         7.5642    3.2827   10.2504 H         1 A79         0.0599
     85 H27         6.7237    3.0611   12.5812 H         1 A79         0.0557
     86 H28         3.6448   -0.1851   15.5894 H         1 A79         0.0645
     87 H29         4.4465    1.3572   17.1148 H         1 A79         0.2100
     88 H30         5.5635    0.0582   18.1137 H         1 A79         0.2100
     89 H31         6.4852   -0.9203   16.2394 H         1 A79         0.0645
     90 H32         5.9283   -3.5358   17.5275 H         1 A79         0.1857
     91 H33         4.8155   -2.4129   15.0111 H         1 A79         0.0605
     92 H34         2.7539   -2.0217   16.2059 H         1 A79         0.0449
     93 H35         3.4947   -2.5631   17.7502 H         1 A79         0.0449
     94 H36         2.3569   -3.6531   14.3782 H         1 A79         0.0557
     95 H37         1.8471   -6.0220   13.8086 H         1 A79         0.0599
     96 H38         2.3150   -7.8259   15.4458 H         1 A79         0.0559
     97 H39         3.2349   -7.2723   17.6801 H         1 A79         0.0599
     98 H40         3.7313   -4.9112   18.2714 H         1 A79         0.0557
     99 H41         6.8563   -6.8520   16.1097 H         1 A79         0.1877
    100 H42         7.8594   -4.3902   17.4058 H         1 A79         0.0799
    101 H43         8.7862   -5.5164   14.7444 H         1 A79         0.0342
    102 H44        10.8892   -5.9566   16.0253 H         1 A79         0.0234
    103 H45         9.4985   -6.8697   16.7028 H         1 A79         0.0234
    104 H46        10.0853   -5.3852   17.5266 H         1 A79         0.0234
    105 H47         8.8517   -3.0352   14.8449 H         1 A79         0.0234
    106 H48        10.5058   -3.7331   14.9023 H         1 A79         0.0234
    107 H49         9.7372   -3.1195   16.4054 H         1 A79         0.0234
    108 H50         5.4380   -9.5858   17.4476 H         1 A79         0.0485
    109 H51         6.7214   -8.8424   16.4343 H         1 A79         0.0485
    110 H52         5.1038   -8.0692   16.5450 H         1 A79         0.0485
    111 H53         6.7811   -8.0347   20.2850 H         1 A79         0.0713
    112 H54         6.0419   -9.4866   19.5287 H         1 A79         0.0713
    113 H55         3.6620   -9.7776   19.4627 H         1 A79         0.0652
    114 H56         1.4258   -9.0082   20.2898 H         1 A79         0.0719
    115 H57         3.2859   -5.3664   21.5494 H         1 A79         0.0803
    116 H58         1.2590   -6.7610   21.3692 H         1 A79         0.0652
@<TRIPOS>BOND
     1    1    2 2  
     2    1    3 am 
     3   12    1 am 
     4    3    4 1  
     5    3    5 1  
     6    5    6 1  
     7    6    7 ar 
     8    6    8 ar 
     9    7    9 ar 
    10    8   10 ar 
    11    9   11 ar 
    12   10   11 ar 
    13   13   12 1  
    14   14   13 1  
    15   13   16 1  
    16   14   15 2  
    17   19   14 am 
    18   16   17 1  
    19   16   18 1  
    20   20   19 1  
    21   20   21 1  
    22   28   20 1  
    23   21   22 1  
    24   22   23 ar 
    25   22   27 ar 
    26   23   24 ar 
    27   24   25 ar 
    28   26   25 ar 
    29   27   26 ar 
    30   28   29 1  
    31   31   28 1  
    32   33   31 1  
    33   33   34 1  
    34   34   35 1  
    35   35   36 ar 
    36   35   40 ar 
    37   36   37 ar 
    38   37   38 ar 
    39   39   38 ar 
    40   40   39 ar 
    41   42   41 1  
    42   41   48 am 
    43   43   42 1  
    44   42   45 1  
    45   43   44 2  
    46   45   46 1  
    47   45   47 1  
    48   48   49 2  
    49   48   50 am 
    50   50   51 1  
    51   50   52 1  
    52   52   53 1  
    53   53   54 ar 
    54   53   55 ar 
    55   54   56 ar 
    56   55   57 ar 
    57   56   58 ar 
    58   57   58 ar 
    59   32   43 am 
    60   33   32 1  
    61   31   30 1  
    62    4   59 1  
    63    4   60 1  
    64    4   61 1  
    65    5   62 1  
    66    5   63 1  
    67    7   64 1  
    68    9   65 1  
    69   10   66 1  
    70   11   67 1  
    71   12   68 1  
    72   13   69 1  
    73   16   70 1  
    74   17   71 1  
    75   17   72 1  
    76   17   73 1  
    77   18   74 1  
    78   18   75 1  
    79   18   76 1  
    80   19   77 1  
    81   20   78 1  
    82   21   79 1  
    83   21   80 1  
    84   23   81 1  
    85   24   82 1  
    86   25   83 1  
    87   26   84 1  
    88   27   85 1  
    89   28   86 1  
    90   29   87 1  
    91   30   88 1  
    92   31   89 1  
    93   32   90 1  
    94   33   91 1  
    95   34   92 1  
    96   34   93 1  
    97   36   94 1  
    98   37   95 1  
    99   38   96 1  
   100   39   97 1  
   101   40   98 1  
   102   41   99 1  
   103   42  100 1  
   104   45  101 1  
   105   46  102 1  
   106   46  103 1  
   107   46  104 1  
   108   47  105 1  
   109   47  106 1  
   110   47  107 1  
   111   51  108 1  
   112   51  109 1  
   113   51  110 1  
   114   52  111 1  
   115   52  112 1  
   116   54  113 1  
   117   56  114 1  
   118   57  115 1  
   119   58  116 1  
@<TRIPOS>SUBSTRUCTURE
     1 A79         1

