### 
### Created by X-TOOL on Mon Sep 10 21:12:45 2018
### 

@<TRIPOS>MOLECULE
1hvl_ligand
  116   119     1     0     0
SMALL
GAST_HUCK


@<TRIPOS>ATOM
      1 C1          3.3750    3.2130   10.8020 C.2       1 A76         0.2640
      2 O2          3.0890    3.9150   11.7510 O.2       1 A76        -0.4004
      3 N3          3.9220    3.7490    9.7000 N.am      1 A76        -0.2488
      4 C4          4.2730    2.9460    8.5250 C.3       1 A76         0.0254
      5 C5          4.2610    5.1730    9.7270 C.3       1 A76         0.0828
      6 C6          5.7350    5.4640    9.9150 C.ar      1 A76         0.0502
      7 C7          6.5140    5.7190    8.7930 C.ar      1 A76        -0.0304
      8 N8          6.2050    5.5480   11.1550 N.ar      1 A76        -0.2961
      9 C9          7.8330    6.1030    9.0050 C.ar      1 A76        -0.0488
     10 C10         7.4610    5.9250   11.3580 C.ar      1 A76         0.0028
     11 C11         8.3160    6.2230   10.3100 C.ar      1 A76        -0.0410
     12 N21         3.1630    1.8950   10.8040 N.am      1 A76        -0.2514
     13 C22         2.7340    1.1600   12.0220 C.3       1 A76         0.1335
     14 C23         3.8430    0.1720   12.4740 C.2       1 A76         0.2021
     15 O24         3.9350   -0.9490   12.0140 O.2       1 A76        -0.3945
     16 C25         1.3530    0.4590   11.8050 C.3       1 A76        -0.0065
     17 C26         0.2590    1.4370   11.3390 C.3       1 A76        -0.0585
     18 C27         0.8540   -0.3020   13.0350 C.3       1 A76        -0.0585
     19 N37         4.6950    0.6400   13.4020 N.am      1 A76        -0.2775
     20 C38         5.8630   -0.0780   13.9970 C.3       1 A76         0.0799
     21 C39         7.1800    0.6630   13.7410 C.3       1 A76         0.0065
     22 C40         7.4770    0.8150   12.3010 C.ar      1 A76        -0.0408
     23 C41         7.9520   -0.2810   11.5950 C.ar      1 A76        -0.0603
     24 C42         8.2170   -0.1470   10.2500 C.ar      1 A76        -0.0686
     25 C43         8.0000    1.0750    9.6070 C.ar      1 A76        -0.0687
     26 C44         7.5430    2.1680   10.3260 C.ar      1 A76        -0.0686
     27 C45         7.2770    2.0430   11.6780 C.ar      1 A76        -0.0603
     28 C46         5.7690   -0.1850   15.5040 C.3       1 A76         0.1079
     29 O47         5.7570    1.1590   15.9770 O.3       1 A76        -0.3867
     30 O48         4.6810   -0.7540   17.5020 O.3       1 A76        -0.3867
     31 C49         4.5410   -0.8350   16.0810 C.3       1 A76         0.1079
     32 N50         5.4660   -3.1000   16.1950 N.am      1 A76        -0.2775
     33 C51         4.3690   -2.2860   15.6750 C.3       1 A76         0.0799
     34 C52         3.0490   -2.8250   16.2110 C.3       1 A76         0.0065
     35 C53         2.8640   -4.3070   15.9610 C.ar      1 A76        -0.0408
     36 C54         2.4080   -4.7500   14.7120 C.ar      1 A76        -0.0603
     37 C55         2.2440   -6.1210   14.4760 C.ar      1 A76        -0.0686
     38 C56         2.5400   -7.0460   15.4810 C.ar      1 A76        -0.0687
     39 C57         2.9920   -6.6080   16.7270 C.ar      1 A76        -0.0686
     40 C58         3.1570   -5.2460   16.9730 C.ar      1 A76        -0.0603
     41 N81         6.9480   -5.9900   16.6460 N.am      1 A76        -0.2514
     42 C82         7.3610   -4.6320   16.2660 C.3       1 A76         0.1335
     43 C83         6.2680   -3.8780   15.4650 C.2       1 A76         0.2021
     44 O84         6.1760   -3.9420   14.2590 O.2       1 A76        -0.3945
     45 C85         8.7110   -4.6080   15.5100 C.3       1 A76        -0.0065
     46 C86         9.7690   -5.4340   16.2350 C.3       1 A76        -0.0585
     47 C87         9.2260   -3.1700   15.3470 C.3       1 A76        -0.0585
     48 C97         6.7970   -6.4050   17.9020 C.2       1 A76         0.2640
     49 O98         7.0870   -5.7120   18.8680 O.2       1 A76        -0.4004
     50 N99         6.3110   -7.6600   18.0560 N.am      1 A76        -0.2488
     51 C2          5.8910   -8.5060   16.9340 C.3       1 A76         0.0254
     52 C3          6.0950   -8.1580   19.4230 C.3       1 A76         0.0828
     53 C8          4.7000   -7.8490   19.9180 C.ar      1 A76         0.0502
     54 C12         3.6630   -8.7550   19.6540 C.ar      1 A76        -0.0304
     55 N10         4.5240   -6.6940   20.5770 N.ar      1 A76        -0.2961
     56 C13         2.3780   -8.4410   20.0920 C.ar      1 A76        -0.0488
     57 C14         3.2800   -6.3950   20.9820 C.ar      1 A76         0.0028
     58 C15         2.1790   -7.2340   20.7650 C.ar      1 A76        -0.0410
     59 H1          4.7038    3.5979    7.7508 H         1 A76         0.0485
     60 H2          3.3695    2.4573    8.1316 H         1 A76         0.0485
     61 H3          5.0092    2.1803    8.8108 H         1 A76         0.0485
     62 H4          3.7099    5.6418   10.5556 H         1 A76         0.0713
     63 H5          3.9413    5.6204    8.7744 H         1 A76         0.0713
     64 H6          6.1092    5.6223    7.7921 H         1 A76         0.0652
     65 H7          8.4831    6.3082    8.1622 H         1 A76         0.0719
     66 H8          7.8289    6.0021   12.3747 H         1 A76         0.0803
     67 H9          9.3350    6.5415   10.4980 H         1 A76         0.0652
     68 H10         3.2978    1.3839    9.9551 H         1 A76         0.1877
     69 H11         2.6017    1.8970   12.8278 H         1 A76         0.0799
     70 H12         1.4987   -0.2788   11.0023 H         1 A76         0.0342
     71 H13        -0.6866    0.8916   11.2030 H         1 A76         0.0234
     72 H14         0.5587    1.8949   10.3848 H         1 A76         0.0234
     73 H15         0.1231    2.2231   12.0963 H         1 A76         0.0234
     74 H16         1.6316   -1.0028   13.3730 H         1 A76         0.0234
     75 H17        -0.0564   -0.8620   12.7753 H         1 A76         0.0234
     76 H18         0.6282    0.4116   13.8411 H         1 A76         0.0234
     77 H19         4.5294    1.5700   13.7302 H         1 A76         0.1857
     78 H20         5.9101   -1.0848   13.5563 H         1 A76         0.0605
     79 H21         7.9987    0.0990   14.2117 H         1 A76         0.0449
     80 H22         7.1154    1.6630   14.1947 H         1 A76         0.0449
     81 H23         8.1123   -1.2294   12.0949 H         1 A76         0.0557
     82 H24         8.5955   -0.9929    9.6877 H         1 A76         0.0599
     83 H25         8.1896    1.1679    8.5438 H         1 A76         0.0559
     84 H26         7.3941    3.1201    9.8296 H         1 A76         0.0599
     85 H27         6.9165    2.8930   12.2460 H         1 A76         0.0557
     86 H28         6.6541   -0.7242   15.8726 H         1 A76         0.0645
     87 H29         5.6987    1.1593   16.9252 H         1 A76         0.2100
     88 H30         4.7888    0.1547   17.7572 H         1 A76         0.2100
     89 H31         3.6513   -0.2747   15.7577 H         1 A76         0.0645
     90 H32         5.6295   -3.0716   17.1811 H         1 A76         0.1857
     91 H33         4.3651   -2.3495   14.5769 H         1 A76         0.0605
     92 H34         2.2259   -2.2828   15.7227 H         1 A76         0.0449
     93 H35         3.0132   -2.6464   17.2958 H         1 A76         0.0449
     94 H36         2.1828   -4.0334   13.9304 H         1 A76         0.0557
     95 H37         1.8869   -6.4651   13.5121 H         1 A76         0.0599
     96 H38         2.4183   -8.1065   15.2924 H         1 A76         0.0559
     97 H39         3.2152   -7.3289   17.5052 H         1 A76         0.0599
     98 H40         3.5100   -4.9083   17.9407 H         1 A76         0.0557
     99 H41         6.7685   -6.6458   15.9127 H         1 A76         0.1877
    100 H42         7.5103   -4.0766   17.2037 H         1 A76         0.0799
    101 H43         8.5526   -5.0403   14.5110 H         1 A76         0.0342
    102 H44        10.7134   -5.3955   15.6722 H         1 A76         0.0234
    103 H45         9.4303   -6.4777   16.3118 H         1 A76         0.0234
    104 H46         9.9263   -5.0244   17.2437 H         1 A76         0.0234
    105 H47         8.4690   -2.5665   14.8248 H         1 A76         0.0234
    106 H48        10.1568   -3.1781   14.7608 H         1 A76         0.0234
    107 H49         9.4209   -2.7357   16.3386 H         1 A76         0.0234
    108 H50         5.5361   -9.4740   17.3175 H         1 A76         0.0485
    109 H51         6.7438   -8.6696   16.2588 H         1 A76         0.0485
    110 H52         5.0781   -8.0091   16.3843 H         1 A76         0.0485
    111 H53         6.8248   -7.6827   20.0949 H         1 A76         0.0713
    112 H54         6.2432   -9.2479   19.4327 H         1 A76         0.0713
    113 H55         3.8566   -9.6789   19.1211 H         1 A76         0.0652
    114 H56         1.5510   -9.1189   19.9141 H         1 A76         0.0719
    115 H57         3.1190   -5.4580   21.5028 H         1 A76         0.0803
    116 H58         1.1920   -6.9515   21.1128 H         1 A76         0.0652
@<TRIPOS>BOND
     1    1    2 2  
     2    1    3 am 
     3   12    1 am 
     4    3    4 1  
     5    3    5 1  
     6    5    6 1  
     7    6    7 ar 
     8    6    8 ar 
     9    7    9 ar 
    10    8   10 ar 
    11    9   11 ar 
    12   10   11 ar 
    13   13   12 1  
    14   14   13 1  
    15   13   16 1  
    16   14   15 2  
    17   19   14 am 
    18   16   17 1  
    19   16   18 1  
    20   20   19 1  
    21   20   21 1  
    22   28   20 1  
    23   21   22 1  
    24   22   23 ar 
    25   22   27 ar 
    26   23   24 ar 
    27   24   25 ar 
    28   26   25 ar 
    29   27   26 ar 
    30   28   29 1  
    31   31   28 1  
    32   33   31 1  
    33   33   34 1  
    34   34   35 1  
    35   35   36 ar 
    36   35   40 ar 
    37   36   37 ar 
    38   37   38 ar 
    39   39   38 ar 
    40   40   39 ar 
    41   42   41 1  
    42   41   48 am 
    43   43   42 1  
    44   42   45 1  
    45   43   44 2  
    46   45   46 1  
    47   45   47 1  
    48   48   49 2  
    49   48   50 am 
    50   50   51 1  
    51   50   52 1  
    52   52   53 1  
    53   53   54 ar 
    54   53   55 ar 
    55   54   56 ar 
    56   55   57 ar 
    57   56   58 ar 
    58   57   58 ar 
    59   32   43 am 
    60   33   32 1  
    61   31   30 1  
    62    4   59 1  
    63    4   60 1  
    64    4   61 1  
    65    5   62 1  
    66    5   63 1  
    67    7   64 1  
    68    9   65 1  
    69   10   66 1  
    70   11   67 1  
    71   12   68 1  
    72   13   69 1  
    73   16   70 1  
    74   17   71 1  
    75   17   72 1  
    76   17   73 1  
    77   18   74 1  
    78   18   75 1  
    79   18   76 1  
    80   19   77 1  
    81   20   78 1  
    82   21   79 1  
    83   21   80 1  
    84   23   81 1  
    85   24   82 1  
    86   25   83 1  
    87   26   84 1  
    88   27   85 1  
    89   28   86 1  
    90   29   87 1  
    91   30   88 1  
    92   31   89 1  
    93   32   90 1  
    94   33   91 1  
    95   34   92 1  
    96   34   93 1  
    97   36   94 1  
    98   37   95 1  
    99   38   96 1  
   100   39   97 1  
   101   40   98 1  
   102   41   99 1  
   103   42  100 1  
   104   45  101 1  
   105   46  102 1  
   106   46  103 1  
   107   46  104 1  
   108   47  105 1  
   109   47  106 1  
   110   47  107 1  
   111   51  108 1  
   112   51  109 1  
   113   51  110 1  
   114   52  111 1  
   115   52  112 1  
   116   54  113 1  
   117   56  114 1  
   118   57  115 1  
   119   58  116 1  
@<TRIPOS>SUBSTRUCTURE
     1 A76         1

