### 
### Created by X-TOOL on Mon Sep 10 21:12:45 2018
### 

@<TRIPOS>MOLECULE
1hvr_ligand
   84    90     1     0     0
SMALL
GAST_HUCK


@<TRIPOS>ATOM
      1 C1         -8.6110   15.0600   27.9540 C.2       1 XK2         0.2672
      2 O1         -7.9390   14.0390   27.9410 O.2       1 XK2        -0.4002
      3 N2         -8.4610   15.9230   26.9050 N.am      1 XK2        -0.2403
      4 C2         -7.8540   15.3510   25.6960 C.3       1 XK2         0.0686
      5 C3         -8.6270   17.3880   27.0110 C.3       1 XK2         0.0854
      6 C4        -10.0290   17.9100   27.2980 C.3       1 XK2         0.1081
      7 O4         -9.9290   19.2740   26.9980 O.3       1 XK2        -0.3867
      8 C5        -10.4610   17.6450   28.7330 C.3       1 XK2         0.1081
      9 O5        -11.6920   18.2540   29.0200 O.3       1 XK2        -0.3867
     10 C6        -10.6570   16.1520   28.9640 C.3       1 XK2         0.0854
     11 N7         -9.4610   15.2940   29.0040 N.am      1 XK2        -0.2403
     12 C7         -9.2710   14.4910   30.2150 C.3       1 XK2         0.0686
     13 C20        -8.3810   15.7300   24.3360 C.ar      1 XK2        -0.0202
     14 C21        -9.7690   15.7120   24.0220 C.ar      1 XK2        -0.0547
     15 C22       -10.1950   15.9190   22.6940 C.ar      1 XK2        -0.0567
     16 C23        -9.2190   16.1520   21.6930 C.ar      1 XK2        -0.0222
     17 C24        -9.6080   16.3040   20.3490 C.ar      1 XK2        -0.0568
     18 C25        -8.6260   16.5080   19.3490 C.ar      1 XK2        -0.0634
     19 C26        -7.2630   16.5620   19.6620 C.ar      1 XK2        -0.0637
     20 C27        -6.8600   16.4030   21.0060 C.ar      1 XK2        -0.0578
     21 C28        -7.8280   16.1920   22.0220 C.ar      1 XK2        -0.0258
     22 C29        -7.4080   15.9830   23.3460 C.ar      1 XK2        -0.0530
     23 C31        -7.4760   17.9720   27.8940 C.3       1 XK2         0.0067
     24 C32        -6.1240   17.8900   27.1930 C.ar      1 XK2        -0.0408
     25 C33        -5.2260   16.8260   27.4940 C.ar      1 XK2        -0.0603
     26 C34        -4.0290   16.6670   26.7500 C.ar      1 XK2        -0.0686
     27 C35        -3.7300   17.5850   25.7230 C.ar      1 XK2        -0.0687
     28 C36        -4.6070   18.6600   25.4320 C.ar      1 XK2        -0.0686
     29 C37        -5.8030   18.8110   26.1630 C.ar      1 XK2        -0.0603
     30 C61       -11.7120   15.4510   28.0790 C.3       1 XK2         0.0067
     31 C62       -12.3100   14.2480   28.7790 C.ar      1 XK2        -0.0408
     32 C63       -13.1670   14.4220   29.8980 C.ar      1 XK2        -0.0603
     33 C64       -13.7000   13.2810   30.5420 C.ar      1 XK2        -0.0686
     34 C65       -13.3740   11.9820   30.0580 C.ar      1 XK2        -0.0687
     35 C66       -12.5290   11.8140   28.9440 C.ar      1 XK2        -0.0686
     36 C67       -11.9920   12.9540   28.3040 C.ar      1 XK2        -0.0603
     37 C70        -9.3740   15.1480   31.5710 C.ar      1 XK2        -0.0202
     38 C71       -10.2280   14.4920   32.4770 C.ar      1 XK2        -0.0530
     39 C72       -10.2720   14.9260   33.8000 C.ar      1 XK2        -0.0258
     40 C73       -11.1560   14.2820   34.7090 C.ar      1 XK2        -0.0578
     41 C74       -11.2450   14.7480   36.0440 C.ar      1 XK2        -0.0637
     42 C75       -10.4350   15.8370   36.4510 C.ar      1 XK2        -0.0634
     43 C76        -9.5400   16.4750   35.5530 C.ar      1 XK2        -0.0568
     44 C77        -9.4550   16.0280   34.2120 C.ar      1 XK2        -0.0222
     45 C78        -8.6050   16.6910   33.2880 C.ar      1 XK2        -0.0567
     46 C79        -8.5740   16.2520   31.9620 C.ar      1 XK2        -0.0547
     47 H1         -7.9486   14.2583   25.7798 H         1 XK2         0.0685
     48 H2         -6.7899   15.6293   25.7129 H         1 XK2         0.0685
     49 H3         -8.4211   17.7640   25.9980 H         1 XK2         0.0607
     50 H4        -10.7563   17.4302   26.6265 H         1 XK2         0.0645
     51 H5        -10.7683   19.6926   27.1487 H         1 XK2         0.2100
     52 H6         -9.6885   18.0310   29.4144 H         1 XK2         0.0645
     53 H7        -11.6159   19.1929   28.8968 H         1 XK2         0.2100
     54 H8        -11.0661   16.1093   29.9842 H         1 XK2         0.0607
     55 H9         -8.2660   14.0486   30.1502 H         1 XK2         0.0685
     56 H10       -10.0260   13.6914   30.1896 H         1 XK2         0.0685
     57 H11       -10.4991   15.5390   24.8043 H         1 XK2         0.0587
     58 H12       -11.2494   15.9003   22.4432 H         1 XK2         0.0620
     59 H13       -10.6573   16.2650   20.0797 H         1 XK2         0.0619
     60 H14        -8.9373   16.6250   18.3173 H         1 XK2         0.0598
     61 H15        -6.5266   16.7237   18.8832 H         1 XK2         0.0611
     62 H16        -5.8075   16.4423   21.2625 H         1 XK2         0.0603
     63 H17        -6.3553   16.0155   23.6026 H         1 XK2         0.0531
     64 H18        -7.4245   17.4023   28.8336 H         1 XK2         0.0449
     65 H19        -7.6980   19.0262   28.1161 H         1 XK2         0.0449
     66 H20        -5.4586   16.1344   28.2957 H         1 XK2         0.0557
     67 H21        -3.3520   15.8491   26.9686 H         1 XK2         0.0599
     68 H22        -2.8182   17.4675   25.1487 H         1 XK2         0.0559
     69 H23        -4.3581   19.3657   24.6477 H         1 XK2         0.0599
     70 H24        -6.4766   19.6300   25.9382 H         1 XK2         0.0557
     71 H25       -11.2333   15.1203   27.1455 H         1 XK2         0.0449
     72 H26       -12.5154   16.1654   27.8461 H         1 XK2         0.0449
     73 H27       -13.4096   15.4167   30.2541 H         1 XK2         0.0557
     74 H28       -14.3533   13.3948   31.3995 H         1 XK2         0.0599
     75 H29       -13.7825   11.1093   30.5546 H         1 XK2         0.0559
     76 H30       -12.2928   10.8203   28.5810 H         1 XK2         0.0599
     77 H31       -11.3362   12.8367   27.4489 H         1 XK2         0.0557
     78 H32       -10.8426   13.6611   32.1501 H         1 XK2         0.0531
     79 H33       -11.7572   13.4410   34.3829 H         1 XK2         0.0603
     80 H34       -11.9244   14.2772   36.7454 H         1 XK2         0.0611
     81 H35       -10.5005   16.1916   37.4733 H         1 XK2         0.0598
     82 H36        -8.9245   17.3004   35.8920 H         1 XK2         0.0619
     83 H37        -7.9897   17.5247   33.6064 H         1 XK2         0.0620
     84 H38        -7.9425   16.7520   31.2366 H         1 XK2         0.0587
@<TRIPOS>BOND
     1    1    2 2  
     2    1    3 am 
     3    1   11 am 
     4    3    4 1  
     5    3    5 1  
     6    4   13 1  
     7    5    6 1  
     8    5   23 1  
     9    6    7 1  
    10    6    8 1  
    11    8    9 1  
    12    8   10 1  
    13   11   10 1  
    14   10   30 1  
    15   11   12 1  
    16   12   37 1  
    17   13   14 ar 
    18   13   22 ar 
    19   14   15 ar 
    20   15   16 ar 
    21   16   17 ar 
    22   16   21 ar 
    23   17   18 ar 
    24   18   19 ar 
    25   19   20 ar 
    26   21   20 ar 
    27   22   21 ar 
    28   23   24 1  
    29   24   25 ar 
    30   24   29 ar 
    31   25   26 ar 
    32   26   27 ar 
    33   27   28 ar 
    34   29   28 ar 
    35   30   31 1  
    36   31   32 ar 
    37   31   36 ar 
    38   32   33 ar 
    39   33   34 ar 
    40   34   35 ar 
    41   36   35 ar 
    42   37   38 ar 
    43   37   46 ar 
    44   38   39 ar 
    45   39   40 ar 
    46   39   44 ar 
    47   40   41 ar 
    48   41   42 ar 
    49   42   43 ar 
    50   44   43 ar 
    51   44   45 ar 
    52   45   46 ar 
    53    4   47 1  
    54    4   48 1  
    55    5   49 1  
    56    6   50 1  
    57    7   51 1  
    58    8   52 1  
    59    9   53 1  
    60   10   54 1  
    61   12   55 1  
    62   12   56 1  
    63   14   57 1  
    64   15   58 1  
    65   17   59 1  
    66   18   60 1  
    67   19   61 1  
    68   20   62 1  
    69   22   63 1  
    70   23   64 1  
    71   23   65 1  
    72   25   66 1  
    73   26   67 1  
    74   27   68 1  
    75   28   69 1  
    76   29   70 1  
    77   30   71 1  
    78   30   72 1  
    79   32   73 1  
    80   33   74 1  
    81   34   75 1  
    82   35   76 1  
    83   36   77 1  
    84   38   78 1  
    85   40   79 1  
    86   41   80 1  
    87   42   81 1  
    88   43   82 1  
    89   45   83 1  
    90   46   84 1  
@<TRIPOS>SUBSTRUCTURE
     1 XK2         1

