### 
### Created by X-TOOL on Mon Sep 10 21:12:45 2018
### 

@<TRIPOS>MOLECULE
1hvs_ligand
  116   119     1     0     0
SMALL
GAST_HUCK


@<TRIPOS>ATOM
      1 C1          3.5100    3.4800   10.9120 C.2       1 A77         0.2640
      2 O2          3.4010    4.2200   11.8740 O.2       1 A77        -0.4004
      3 N3          3.9770    3.9480    9.7340 N.am      1 A77        -0.2488
      4 C4          4.2570    3.0870    8.5790 C.3       1 A77         0.0254
      5 C5          4.2450    5.3400    9.5550 C.3       1 A77         0.0828
      6 C6          5.7260    5.5540    9.5920 C.ar      1 A77         0.0502
      7 C7          6.4710    5.6040    8.4260 C.ar      1 A77        -0.0304
      8 N8          6.2330    5.7210   10.7900 N.ar      1 A77        -0.2961
      9 C9          7.8180    5.8620    8.5190 C.ar      1 A77        -0.0488
     10 C10         7.5300    5.9550   10.8530 C.ar      1 A77         0.0028
     11 C11         8.3670    6.0450    9.7650 C.ar      1 A77        -0.0410
     12 N21         3.1750    2.1870   10.9770 N.am      1 A77        -0.2514
     13 C22         2.7630    1.4930   12.1580 C.3       1 A77         0.1335
     14 C23         3.9020    0.5570   12.5420 C.2       1 A77         0.2021
     15 O24         3.9500   -0.6130   12.1900 O.2       1 A77        -0.3945
     16 C25         1.4450    0.7500   11.9050 C.3       1 A77        -0.0065
     17 C26         0.9350   -0.0520   13.1280 C.3       1 A77        -0.0585
     18 C27         0.3580    1.6990   11.3980 C.3       1 A77        -0.0585
     19 N37         4.8410    1.1180   13.2860 N.am      1 A77        -0.2775
     20 C38         6.0420    0.4140   13.6900 C.3       1 A77         0.0799
     21 C39         7.2750    1.2580   13.3490 C.3       1 A77         0.0065
     22 C40         7.6120    1.2130   11.8990 C.ar      1 A77        -0.0408
     23 C41         7.2320    2.2390   11.0570 C.ar      1 A77        -0.0603
     24 C42         7.5100    2.1640    9.7190 C.ar      1 A77        -0.0686
     25 C43         8.1600    1.0600    9.2310 C.ar      1 A77        -0.0687
     26 C44         8.5580    0.0400   10.0740 C.ar      1 A77        -0.0686
     27 C45         8.2890    0.1150   11.4130 C.ar      1 A77        -0.0603
     28 C46         6.0140    0.2880   15.1650 C.3       1 A77         0.1079
     29 O47         7.2100   -0.3640   15.5460 O.3       1 A77        -0.3867
     30 O48         5.1780   -0.2200   17.1760 O.3       1 A77        -0.3867
     31 C49         4.8230   -0.3660   15.8340 C.3       1 A77         0.1079
     32 N50         5.7220   -2.6330   16.3070 N.am      1 A77        -0.2775
     33 C51         4.6460   -1.8620   15.6430 C.3       1 A77         0.0799
     34 C52         3.2800   -2.2330   16.2470 C.3       1 A77         0.0065
     35 C53         2.9310   -3.7210   16.1860 C.ar      1 A77        -0.0408
     36 C54         2.9960   -4.5160   17.3310 C.ar      1 A77        -0.0603
     37 C55         2.6860   -5.8610   17.2760 C.ar      1 A77        -0.0686
     38 C56         2.3100   -6.4490   16.0970 C.ar      1 A77        -0.0687
     39 C57         2.2310   -5.6780   14.9520 C.ar      1 A77        -0.0686
     40 C58         2.5380   -4.3230   14.9950 C.ar      1 A77        -0.0603
     41 N81         6.8350   -5.7600   16.7550 N.am      1 A77        -0.2514
     42 C82         7.3860   -4.4340   16.5220 C.3       1 A77         0.1335
     43 C83         6.3750   -3.6460   15.7030 C.2       1 A77         0.2021
     44 O84         6.1900   -3.9220   14.5280 O.2       1 A77        -0.3945
     45 C85         8.7230   -4.6000   15.8120 C.3       1 A77        -0.0065
     46 C86         9.3520   -3.2450   15.4470 C.3       1 A77        -0.0585
     47 C87         9.6830   -5.4520   16.6680 C.3       1 A77        -0.0585
     48 C97         6.6040   -6.2540   17.9820 C.2       1 A77         0.2640
     49 O98         7.0510   -5.7360   18.9890 O.2       1 A77        -0.4004
     50 N99         5.8920   -7.3630   18.0710 N.am      1 A77        -0.2488
     51 C2          5.3520   -7.9890   16.8560 C.3       1 A77         0.0254
     52 C3          5.6690   -7.9730   19.3750 C.3       1 A77         0.0828
     53 C8          4.2440   -7.8210   19.8470 C.ar      1 A77         0.0502
     54 C12         3.3400   -8.8480   19.5810 C.ar      1 A77        -0.0304
     55 N10         3.9180   -6.6890   20.4580 N.ar      1 A77        -0.2961
     56 C13         2.0170   -8.7120   19.9230 C.ar      1 A77        -0.0488
     57 C14         2.6310   -6.5680   20.7440 C.ar      1 A77         0.0028
     58 C15         1.6530   -7.5280   20.5140 C.ar      1 A77        -0.0410
     59 H1          4.6259    3.7015    7.7445 H         1 A77         0.0485
     60 H2          3.3347    2.5707    8.2743 H         1 A77         0.0485
     61 H3          5.0203    2.3435    8.8523 H         1 A77         0.0485
     62 H4          3.7680    5.9153   10.3621 H         1 A77         0.0713
     63 H5          3.8476    5.6713    8.5843 H         1 A77         0.0713
     64 H6          6.0027    5.4433    7.4617 H         1 A77         0.0652
     65 H7          8.4336    5.9198    7.6286 H         1 A77         0.0719
     66 H8          7.9688    6.0861   11.8355 H         1 A77         0.0803
     67 H9          9.4238    6.2532    9.8867 H         1 A77         0.0652
     68 H10         3.2160    1.6605   10.1278 H         1 A77         0.1877
     69 H11         2.6028    2.2154   12.9719 H         1 A77         0.0799
     70 H12         1.6424    0.0209   11.1053 H         1 A77         0.0342
     71 H13        -0.0090   -0.5540   12.8695 H         1 A77         0.0234
     72 H14         0.7666    0.6334   13.9717 H         1 A77         0.0234
     73 H15         1.6851   -0.8050   13.4114 H         1 A77         0.0234
     74 H16         0.7363    2.2599   10.5307 H         1 A77         0.0234
     75 H17         0.0830    2.4023   12.1978 H         1 A77         0.0234
     76 H18        -0.5271    1.1174   11.1008 H         1 A77         0.0234
     77 H19         4.7174    2.0653   13.5814 H         1 A77         0.1857
     78 H20         6.0954   -0.5721   13.2055 H         1 A77         0.0605
     79 H21         8.1329    0.8776   13.9227 H         1 A77         0.0449
     80 H22         7.0777    2.3021   13.6333 H         1 A77         0.0449
     81 H23         6.7137    3.1036   11.4555 H         1 A77         0.0557
     82 H24         7.2196    2.9683    9.0528 H         1 A77         0.0599
     83 H25         8.3646    0.9862    8.1690 H         1 A77         0.0559
     84 H26         9.0835   -0.8197    9.6741 H         1 A77         0.0599
     85 H27         8.6036   -0.6775   12.0823 H         1 A77         0.0557
     86 H28         6.0460    1.3142   15.5599 H         1 A77         0.0645
     87 H29         7.2282   -0.4633   16.4906 H         1 A77         0.2100
     88 H30         5.3065    0.7011   17.3700 H         1 A77         0.2100
     89 H31         3.8926    0.1573   15.5685 H         1 A77         0.0645
     90 H32         5.9751   -2.3918   17.2439 H         1 A77         0.1857
     91 H33         4.6535   -2.0967   14.5684 H         1 A77         0.0605
     92 H34         2.5030   -1.6773   15.7016 H         1 A77         0.0449
     93 H35         3.2783   -1.9248   17.3029 H         1 A77         0.0449
     94 H36         3.2932   -4.0729   18.2746 H         1 A77         0.0557
     95 H37         2.7410   -6.4595   18.1781 H         1 A77         0.0599
     96 H38         2.0770   -7.5071   16.0623 H         1 A77         0.0559
     97 H39         1.9280   -6.1327   14.0158 H         1 A77         0.0599
     98 H40         2.4705   -3.7290   14.0908 H         1 A77         0.0557
     99 H41         6.6178   -6.3311   15.9633 H         1 A77         0.1877
    100 H42         7.5503   -3.9200   17.4805 H         1 A77         0.0799
    101 H43         8.5379   -5.1425   14.8731 H         1 A77         0.0342
    102 H44        10.3127   -3.4120   14.9379 H         1 A77         0.0234
    103 H45         9.5195   -2.6598   16.3632 H         1 A77         0.0234
    104 H46         8.6739   -2.6940   14.7788 H         1 A77         0.0234
    105 H47         9.2037   -6.4118   16.9110 H         1 A77         0.0234
    106 H48         9.9198   -4.9147   17.5981 H         1 A77         0.0234
    107 H49        10.6098   -5.6371   16.1052 H         1 A77         0.0234
    108 H50         4.7918   -8.8956   17.1286 H         1 A77         0.0485
    109 H51         6.1796   -8.2579   16.1832 H         1 A77         0.0485
    110 H52         4.6803   -7.2822   16.3468 H         1 A77         0.0485
    111 H53         6.3362   -7.4946   20.1072 H         1 A77         0.0713
    112 H54         5.9062   -9.0450   19.3084 H         1 A77         0.0713
    113 H55         3.6828   -9.7581   19.1021 H         1 A77         0.0652
    114 H56         1.2966   -9.5000   19.7356 H         1 A77         0.0719
    115 H57         2.3117   -5.6369   21.1981 H         1 A77         0.0803
    116 H58         0.6224   -7.3452   20.7960 H         1 A77         0.0652
@<TRIPOS>BOND
     1    1    2 2  
     2    1    3 am 
     3   12    1 am 
     4    3    4 1  
     5    3    5 1  
     6    5    6 1  
     7    6    7 ar 
     8    6    8 ar 
     9    7    9 ar 
    10    8   10 ar 
    11    9   11 ar 
    12   10   11 ar 
    13   13   12 1  
    14   14   13 1  
    15   13   16 1  
    16   14   15 2  
    17   19   14 am 
    18   16   17 1  
    19   16   18 1  
    20   20   19 1  
    21   20   21 1  
    22   28   20 1  
    23   21   22 1  
    24   22   23 ar 
    25   22   27 ar 
    26   23   24 ar 
    27   24   25 ar 
    28   26   25 ar 
    29   27   26 ar 
    30   28   29 1  
    31   31   28 1  
    32   33   31 1  
    33   33   34 1  
    34   34   35 1  
    35   35   36 ar 
    36   35   40 ar 
    37   36   37 ar 
    38   37   38 ar 
    39   39   38 ar 
    40   40   39 ar 
    41   42   41 1  
    42   41   48 am 
    43   43   42 1  
    44   42   45 1  
    45   43   44 2  
    46   45   46 1  
    47   45   47 1  
    48   48   49 2  
    49   48   50 am 
    50   50   51 1  
    51   50   52 1  
    52   52   53 1  
    53   53   54 ar 
    54   53   55 ar 
    55   54   56 ar 
    56   55   57 ar 
    57   56   58 ar 
    58   57   58 ar 
    59   32   43 am 
    60   33   32 1  
    61   31   30 1  
    62    4   59 1  
    63    4   60 1  
    64    4   61 1  
    65    5   62 1  
    66    5   63 1  
    67    7   64 1  
    68    9   65 1  
    69   10   66 1  
    70   11   67 1  
    71   12   68 1  
    72   13   69 1  
    73   16   70 1  
    74   17   71 1  
    75   17   72 1  
    76   17   73 1  
    77   18   74 1  
    78   18   75 1  
    79   18   76 1  
    80   19   77 1  
    81   20   78 1  
    82   21   79 1  
    83   21   80 1  
    84   23   81 1  
    85   24   82 1  
    86   25   83 1  
    87   26   84 1  
    88   27   85 1  
    89   28   86 1  
    90   29   87 1  
    91   30   88 1  
    92   31   89 1  
    93   32   90 1  
    94   33   91 1  
    95   34   92 1  
    96   34   93 1  
    97   36   94 1  
    98   37   95 1  
    99   38   96 1  
   100   39   97 1  
   101   40   98 1  
   102   41   99 1  
   103   42  100 1  
   104   45  101 1  
   105   46  102 1  
   106   46  103 1  
   107   46  104 1  
   108   47  105 1  
   109   47  106 1  
   110   47  107 1  
   111   51  108 1  
   112   51  109 1  
   113   51  110 1  
   114   52  111 1  
   115   52  112 1  
   116   54  113 1  
   117   56  114 1  
   118   57  115 1  
   119   58  116 1  
@<TRIPOS>SUBSTRUCTURE
     1 A77         1

