### 
### Created by X-TOOL on Mon Sep 10 21:12:48 2018
### 

@<TRIPOS>MOLECULE
1hvy_ligand
   52    54     1     0     0
SMALL
GAST_HUCK


@<TRIPOS>ATOM
      1 N1         -0.3080    6.6200   19.3640 N.2       1 D16        -0.3127
      2 C2         -1.6030    6.6600   18.9260 C.2       1 D16         0.1373
      3 CM2        -2.6410    5.8470   19.5660 C.3       1 D16         0.0259
      4 N3         -1.9470    7.4590   17.8800 N.am      1 D16        -0.1956
      5 C4         -1.0230    8.2410   17.2540 C.2       1 D16         0.2337
      6 O4         -1.4230    9.0040   16.1900 O.2       1 D16        -0.3861
      7 C4A         0.3250    8.2490   17.6810 C.ar      1 D16         0.0536
      8 C5          1.3180    9.0650   17.0900 C.ar      1 D16        -0.0465
      9 C6          2.6760    9.0370   17.5790 C.ar      1 D16        -0.0230
     10 C7          3.0090    8.1690   18.6550 C.ar      1 D16        -0.0617
     11 C8          2.0100    7.3490   19.2550 C.ar      1 D16        -0.0591
     12 C8A         0.6580    7.3820   18.7820 C.ar      1 D16         0.0063
     13 C9          3.7660    9.9050   17.0090 C.3       1 D16         0.0634
     14 N10         3.3900   10.8370   15.9090 N.pl3     1 D16        -0.2814
     15 C11         1.0690   13.7040   17.0850 C.2       1 D16         0.0792
     16 S13         1.8900   12.3420   17.6620 S.3       1 D16        -0.0060
     17 C14         2.5740   11.9240   16.1210 C.2       1 D16         0.1123
     18 C15         2.1710   12.8340   15.1590 C.2       1 D16        -0.0532
     19 C16         1.2730   13.8930   15.7400 C.2       1 D16        -0.0778
     20 C           0.2530   14.5550   17.9120 C.2       1 D16         0.1901
     21 O           0.1360   14.2850   19.1140 O.2       1 D16        -0.4033
     22 N          -0.3490   15.6000   17.3470 N.am      1 D16        -0.2761
     23 CA         -1.2180   16.5590   18.0520 C.3       1 D16         0.0943
     24 CB         -0.5640   17.8810   18.3990 C.3       1 D16        -0.0066
     25 CG         -0.6590   18.4840   19.7620 C.3       1 D16         0.0038
     26 CD          0.4540   19.5100   19.8900 C.2       1 D16         0.0350
     27 OE1         1.4720   19.2220   20.5240 O.co2     1 D16        -0.5690
     28 OE2         0.3280   20.6200   19.3580 O.co2     1 D16        -0.5690
     29 CT         -2.3990   16.8470   17.1360 C.2       1 D16         0.0600
     30 O1         -2.2490   16.7750   15.8980 O.co2     1 D16        -0.5666
     31 O2         -3.4760   17.1360   17.6490 O.co2     1 D16        -0.5666
     32 CP1         3.9310   10.5450   14.5740 C.3       1 D16         0.0236
     33 H1         -2.1967    5.2651   20.3870 H         1 D16         0.0525
     34 H2         -3.0783    5.1612   18.8254 H         1 D16         0.0525
     35 H3         -3.4270    6.5044   19.9660 H         1 D16         0.0525
     36 H4         -2.8958    7.4727   17.5645 H         1 D16         0.2524
     37 H5          1.0572    9.7163   16.2636 H         1 D16         0.0581
     38 H6          4.0287    8.1309   19.0209 H         1 D16         0.0576
     39 H7          2.2754    6.6941   20.0770 H         1 D16         0.0542
     40 H8          4.5520    9.2388   16.6238 H         1 D16         0.0677
     41 H9          4.1705   10.5116   17.8326 H         1 D16         0.0677
     42 H10         2.4669   12.7893   14.1119 H         1 D16         0.0234
     43 H11         0.8383   14.7090   15.1645 H         1 D16         0.0466
     44 H12        -0.1999   15.7451   16.3689 H         1 D16         0.1851
     45 H13        -1.5704   16.0919   18.9835 H         1 D16         0.0725
     46 H14        -0.9858   18.6232   17.7053 H         1 D16         0.0323
     47 H15         0.5093   17.7554   18.1935 H         1 D16         0.0323
     48 H16        -0.5384   17.7027   20.5269 H         1 D16         0.0432
     49 H17        -1.6361   18.9732   19.8883 H         1 D16         0.0432
     50 H18         3.5781   11.3048   13.8612 H         1 D16         0.0494
     51 H19         3.5895    9.5510   14.2493 H         1 D16         0.0494
     52 H20         5.0302   10.5607   14.6123 H         1 D16         0.0494
@<TRIPOS>BOND
     1    1    2 2  
     2   12    1 1  
     3    2    3 1  
     4    4    2 am 
     5    5    4 am 
     6    5    6 2  
     7    7    5 1  
     8    8    7 ar 
     9    7   12 ar 
    10    9    8 ar 
    11    9   10 ar 
    12   13    9 1  
    13   10   11 ar 
    14   11   12 ar 
    15   14   13 1  
    16   17   14 1  
    17   14   32 1  
    18   16   15 1  
    19   15   19 2  
    20   15   20 1  
    21   16   17 1  
    22   17   18 2  
    23   18   19 1  
    24   20   21 2  
    25   20   22 am 
    26   22   23 1  
    27   23   24 1  
    28   23   29 1  
    29   24   25 1  
    30   25   26 1  
    31   26   27 ar 
    32   26   28 ar 
    33   29   30 ar 
    34   29   31 ar 
    35    3   33 1  
    36    3   34 1  
    37    3   35 1  
    38    4   36 1  
    39    8   37 1  
    40   10   38 1  
    41   11   39 1  
    42   13   40 1  
    43   13   41 1  
    44   18   42 1  
    45   19   43 1  
    46   22   44 1  
    47   23   45 1  
    48   24   46 1  
    49   24   47 1  
    50   25   48 1  
    51   25   49 1  
    52   32   50 1  
    53   32   51 1  
    54   32   52 1  
@<TRIPOS>SUBSTRUCTURE
     1 D16         1

