### 
### Created by X-TOOL on Mon Sep 10 21:12:47 2018
### 

@<TRIPOS>MOLECULE
1hwr_ligand
   60    62     1     0     0
SMALL
GAST_HUCK


@<TRIPOS>ATOM
      1 O1         -8.0280   14.2810   27.7780 O.2       1 216        -0.4001
      2 O4        -10.1210   19.3420   26.7660 O.3       1 216        -0.3867
      3 O5        -11.7890   18.3830   28.8790 O.3       1 216        -0.3867
      4 N2         -8.6520   16.0650   26.7760 N.am      1 216        -0.2395
      5 N7         -9.4270   15.5680   28.9380 N.am      1 216        -0.2395
      6 C1         -8.7000   15.2840   27.8370 C.2       1 216         0.2677
      7 C3         -8.8280   17.5220   26.8240 C.3       1 216         0.0857
      8 C4        -10.2040   18.0170   27.1390 C.3       1 216         0.1081
      9 C5        -10.5430   17.8310   28.5730 C.3       1 216         0.1081
     10 C6        -10.6770   16.3590   28.9200 C.3       1 216         0.0857
     11 C21        -8.2430   15.4760   25.4990 C.3       1 216         0.0628
     12 C22        -9.1850   15.8620   24.3840 C.2       1 216        -0.0673
     13 C23        -8.7490   16.3800   23.2310 C.2       1 216        -0.1156
     14 C31        -7.6840   18.1830   27.6090 C.3       1 216         0.0067
     15 C32        -6.3600   17.9800   26.9280 C.ar      1 216        -0.0408
     16 C33        -5.5520   16.8720   27.2700 C.ar      1 216        -0.0603
     17 C34        -4.3000   16.6710   26.6470 C.ar      1 216        -0.0686
     18 C35        -3.8480   17.5700   25.6680 C.ar      1 216        -0.0687
     19 C36        -4.6680   18.6860   25.3170 C.ar      1 216        -0.0686
     20 C37        -5.9270   18.8980   25.9450 C.ar      1 216        -0.0603
     21 C61       -11.7870   15.5540   28.1750 C.3       1 216         0.0067
     22 C62       -12.3910   14.3920   28.9530 C.ar      1 216        -0.0408
     23 C63       -13.2790   14.6880   30.0160 C.ar      1 216        -0.0603
     24 C64       -13.9120   13.6630   30.7380 C.ar      1 216        -0.0686
     25 C65       -13.6380   12.3260   30.3710 C.ar      1 216        -0.0687
     26 C66       -12.7500   12.0180   29.3060 C.ar      1 216        -0.0686
     27 C67       -12.1100   13.0510   28.5850 C.ar      1 216        -0.0603
     28 C71        -9.1190   15.0180   30.2720 C.3       1 216         0.0628
     29 C72        -9.0070   16.0630   31.3700 C.2       1 216        -0.0673
     30 C73        -9.4480   15.8760   32.6200 C.2       1 216        -0.1156
     31 H1        -10.9569   19.7663   26.9205 H         1 216         0.2100
     32 H2        -11.7785   19.3128   28.6848 H         1 216         0.2100
     33 H3         -8.6723   17.8488   25.7853 H         1 216         0.0607
     34 H4        -10.9559   17.4926   26.5311 H         1 216         0.0645
     35 H5         -9.7594   18.2974   29.1882 H         1 216         0.0645
     36 H6        -11.0078   16.3786   29.9689 H         1 216         0.0607
     37 H7         -8.2353   14.3804   25.5970 H         1 216         0.0700
     38 H8         -7.2313   15.8291   25.2503 H         1 216         0.0700
     39 H9        -10.2548   15.7136   24.5234 H         1 216         0.0692
     40 H10        -9.4600   16.6460   22.4502 H         1 216         0.0290
     41 H11        -7.6829   16.5359   23.0727 H         1 216         0.0290
     42 H12        -7.6395   17.7418   28.6156 H         1 216         0.0449
     43 H13        -7.8826   19.2619   27.6899 H         1 216         0.0449
     44 H14        -5.8969   16.1683   28.0189 H         1 216         0.0557
     45 H15        -3.6873   15.8212   26.9254 H         1 216         0.0599
     46 H16        -2.8894   17.4194   25.1848 H         1 216         0.0559
     47 H17        -4.3255   19.3824   24.5601 H         1 216         0.0599
     48 H18        -6.5427   19.7481   25.6743 H         1 216         0.0557
     49 H19       -11.3496   15.1508   27.2497 H         1 216         0.0449
     50 H20       -12.5995   16.2513   27.9230 H         1 216         0.0449
     51 H21       -13.4732   15.7222   30.2765 H         1 216         0.0557
     52 H22       -14.5904   13.8906   31.5523 H         1 216         0.0599
     53 H23       -14.1157   11.5184   30.9138 H         1 216         0.0559
     54 H24       -12.5620   10.9830   29.0445 H         1 216         0.0599
     55 H25       -11.4252   12.8257   27.7754 H         1 216         0.0557
     56 H26        -8.1616   14.4799   30.2099 H         1 216         0.0700
     57 H27        -9.9182   14.3140   30.5471 H         1 216         0.0700
     58 H28        -8.5420   17.0171   31.1262 H         1 216         0.0692
     59 H29        -9.3370   16.6667   33.3606 H         1 216         0.0290
     60 H30        -9.9178   14.9332   32.8963 H         1 216         0.0290
@<TRIPOS>BOND
     1    1    6 2  
     2    6    4 am 
     3    6    5 am 
     4    5   10 1  
     5    5   28 1  
     6   28   29 1  
     7   29   30 2  
     8   10   21 1  
     9   10    9 1  
    10    9    3 1  
    11    9    8 1  
    12    8    2 1  
    13    8    7 1  
    14    7    4 1  
    15    7   14 1  
    16   14   15 1  
    17   15   20 ar 
    18   15   16 ar 
    19   16   17 ar 
    20   17   18 ar 
    21   18   19 ar 
    22   19   20 ar 
    23    4   11 1  
    24   11   12 1  
    25   12   13 2  
    26   21   22 1  
    27   22   27 ar 
    28   22   23 ar 
    29   23   24 ar 
    30   24   25 ar 
    31   25   26 ar 
    32   26   27 ar 
    33    2   31 1  
    34    3   32 1  
    35    7   33 1  
    36    8   34 1  
    37    9   35 1  
    38   10   36 1  
    39   11   37 1  
    40   11   38 1  
    41   12   39 1  
    42   13   40 1  
    43   13   41 1  
    44   14   42 1  
    45   14   43 1  
    46   16   44 1  
    47   17   45 1  
    48   18   46 1  
    49   19   47 1  
    50   20   48 1  
    51   21   49 1  
    52   21   50 1  
    53   23   51 1  
    54   24   52 1  
    55   25   53 1  
    56   26   54 1  
    57   27   55 1  
    58   28   56 1  
    59   28   57 1  
    60   29   58 1  
    61   30   59 1  
    62   30   60 1  
@<TRIPOS>SUBSTRUCTURE
     1 216         1

