### 
### Created by X-TOOL on Mon Sep 10 21:12:49 2018
### 

@<TRIPOS>MOLECULE
1hww_ligand
   28    29     1     0     0
SMALL
GAST_HUCK


@<TRIPOS>ATOM
      1 C1         31.0850   66.8500    6.1040 C.3       1 SWA         0.1004
      2 O1         31.6160   67.9930    5.4120 O.3       1 SWA        -0.3861
      3 C3         31.2910   67.0030    7.6490 C.3       1 SWA         0.0348
      4 N4         30.7310   65.8070    8.3070 N.4       1 SWA         0.2430
      5 C5         29.2560   65.6700    8.1360 C.3       1 SWA        -0.0313
      6 C6         28.9520   65.4970    6.6230 C.3       1 SWA        -0.0100
      7 C2         29.5540   66.6860    5.8180 C.3       1 SWA        -0.0167
      8 C9         31.2840   65.7130    9.6520 C.3       1 SWA        -0.0021
      9 C8         32.6480   66.4480    9.5970 C.3       1 SWA         0.1259
     10 O13        33.7150   65.5340    9.8330 O.3       1 SWA        -0.3837
     11 C7         32.7550   67.0820    8.1610 C.3       1 SWA         0.1307
     12 O11        33.6410   66.3140    7.3190 O.3       1 SWA        -0.3833
     13 H1         31.6138   65.9502    5.7566 H         1 SWA         0.0651
     14 H2         32.5452   68.0690    5.5948 H         1 SWA         0.2100
     15 H3         30.7558   67.9071    7.9746 H         1 SWA         0.0904
     16 H4         31.1102   65.0146    7.8126 H         1 SWA         0.2039
     17 H5         28.7527   66.5715    8.5153 H         1 SWA         0.0814
     18 H6         28.8979   64.7897    8.6899 H         1 SWA         0.0814
     19 H7         27.8629   65.4692    6.4714 H         1 SWA         0.0318
     20 H8         29.3958   64.5553    6.2679 H         1 SWA         0.0318
     21 H9         29.4080   66.5015    4.7435 H         1 SWA         0.0294
     22 H10        29.0347   67.6123    6.1049 H         1 SWA         0.0294
     23 H11        31.4271   64.6598    9.9352 H         1 SWA         0.0841
     24 H12        30.6149   66.1999   10.3767 H         1 SWA         0.0841
     25 H13        32.6788   67.2409   10.3588 H         1 SWA         0.0675
     26 H14        34.5443   65.9921    9.7629 H         1 SWA         0.2101
     27 H15        33.1047   68.1238    8.2101 H         1 SWA         0.0679
     28 H16        34.5074   66.2936    7.7082 H         1 SWA         0.2102
@<TRIPOS>BOND
     1    1    7 1  
     2    1    3 1  
     3    1    2 1  
     4    3   11 1  
     5    3    4 1  
     6    4    8 1  
     7    4    5 1  
     8    5    6 1  
     9    7    6 1  
    10    8    9 1  
    11    9   11 1  
    12    9   10 1  
    13   11   12 1  
    14    1   13 1  
    15    2   14 1  
    16    3   15 1  
    17    4   16 1  
    18    5   17 1  
    19    5   18 1  
    20    6   19 1  
    21    6   20 1  
    22    7   21 1  
    23    7   22 1  
    24    8   23 1  
    25    8   24 1  
    26    9   25 1  
    27   10   26 1  
    28   11   27 1  
    29   12   28 1  
@<TRIPOS>SUBSTRUCTURE
     1 SWA         1

