### 
### Created by X-TOOL on Mon Sep 10 21:12:45 2018
### 

@<TRIPOS>MOLECULE
1hxb_ligand
  100   104     1     0     0
SMALL
GAST_HUCK


@<TRIPOS>ATOM
      1 O          20.1680   -3.4210    6.0800 O.2       1 ROC        -0.3762
      2 C          19.0260   -3.5990    6.5160 C.2       1 ROC         0.2293
      3 N1         17.0310   -4.8170    6.8790 N.ar      1 ROC        -0.2737
      4 C2         18.3400   -4.8180    6.5140 C.ar      1 ROC         0.1219
      5 C3         18.9700   -6.0340    6.2250 C.ar      1 ROC        -0.0136
      6 C4         18.2400   -7.2190    6.3330 C.ar      1 ROC        -0.0314
      7 C4A        16.8980   -7.1660    6.7210 C.ar      1 ROC         0.0097
      8 C5         16.1460   -8.3330    6.8450 C.ar      1 ROC        -0.0444
      9 C6         14.8060   -8.2410    7.2430 C.ar      1 ROC        -0.0546
     10 C7         14.2170   -7.0010    7.5160 C.ar      1 ROC        -0.0545
     11 C8         14.9660   -5.8350    7.3930 C.ar      1 ROC        -0.0370
     12 C8A        16.2970   -5.9290    6.9950 C.ar      1 ROC         0.0527
     13 N          18.2790   -2.6270    7.0450 N.am      1 ROC        -0.2600
     14 CA         18.7730   -1.2910    7.3000 C.3       1 ROC         0.1473
     15 C          18.6260   -0.8980    8.7610 C.2       1 ROC         0.2045
     16 O          17.7090   -0.1980    9.2080 O.2       1 ROC        -0.3943
     17 CB         18.0410   -0.3040    6.4420 C.3       1 ROC         0.0773
     18 CG         18.4490   -0.5710    5.0140 C.2       1 ROC         0.1780
     19 OD1        19.6160   -0.6910    4.6750 O.2       1 ROC        -0.3970
     20 ND2        17.5560   -0.7630    4.0770 N.am      1 ROC        -0.3007
     21 C          20.5870    0.0830   11.1880 C.3       1 ROC         0.1194
     22 O          21.8770   -0.5100   11.1080 O.3       1 ROC        -0.3840
     23 CA         19.5590   -1.0490   10.9830 C.3       1 ROC         0.0823
     24 N          19.5670   -1.3870    9.5690 N.am      1 ROC        -0.2772
     25 CB         19.8880   -2.3140   11.7920 C.3       1 ROC         0.0066
     26 CG         19.0890   -3.5050   11.3210 C.ar      1 ROC        -0.0408
     27 CD1        17.7280   -3.5760   11.5980 C.ar      1 ROC        -0.0603
     28 CD2        19.7250   -4.4940   10.5720 C.ar      1 ROC        -0.0603
     29 CE1        16.9950   -4.6560   11.1170 C.ar      1 ROC        -0.0686
     30 CE2        18.9830   -5.5600   10.1010 C.ar      1 ROC        -0.0686
     31 CZ         17.6200   -5.6400   10.3700 C.ar      1 ROC        -0.0687
     32 N1         19.4210    1.9070   12.4190 N.4       1 ROC         0.2562
     33 CM         20.4640    0.8860   12.4880 C.3       1 ROC        -0.0008
     34 C2         18.8880    2.2870   13.7380 C.3       1 ROC         0.0688
     35 C          18.2420    1.1880   14.5710 C.2       1 ROC         0.2251
     36 O          17.3660    0.4830   14.0690 O.2       1 ROC        -0.3909
     37 C3         17.8450    3.3900   13.5940 C.3       1 ROC         0.0113
     38 C3A        18.4400    4.6080   12.9310 C.3       1 ROC        -0.0261
     39 C4         17.3550    5.6530   12.7550 C.3       1 ROC        -0.0494
     40 C5         16.3630    5.2980   11.6560 C.3       1 ROC        -0.0528
     41 C6         17.0720    5.0810   10.3330 C.3       1 ROC        -0.0526
     42 C7         17.9910    3.8940   10.5180 C.3       1 ROC        -0.0451
     43 C7A        19.0660    4.2160   11.5430 C.3       1 ROC         0.0024
     44 C8         20.0220    3.0510   11.7430 C.3       1 ROC        -0.0266
     45 N          18.7210    1.1200   15.8140 N.am      1 ROC        -0.2771
     46 C          18.3340    0.1420   16.8130 C.3       1 ROC         0.0448
     47 C1         19.1540    0.4560   18.0370 C.3       1 ROC        -0.0396
     48 C2         16.8870    0.3020   17.1980 C.3       1 ROC        -0.0396
     49 C3         18.6330   -1.2900   16.3650 C.3       1 ROC        -0.0396
     50 H1         20.0104   -6.0553    5.9215 H         1 ROC         0.0729
     51 H2         18.7097   -8.1720    6.1179 H         1 ROC         0.0774
     52 H3         16.5920   -9.2987    6.6363 H         1 ROC         0.0657
     53 H4         14.2157   -9.1449    7.3411 H         1 ROC         0.0652
     54 H5         13.1786   -6.9492    7.8229 H         1 ROC         0.0657
     55 H6         14.5208   -4.8693    7.6035 H         1 ROC         0.0653
     56 H7         17.3284   -2.8330    7.2771 H         1 ROC         0.1882
     57 H8         19.8413   -1.2629    7.0396 H         1 ROC         0.0826
     58 H9         18.3163    0.7219    6.7277 H         1 ROC         0.0551
     59 H10        16.9550   -0.4374    6.5556 H         1 ROC         0.0551
     60 H11        17.8477   -0.9385    3.1367 H         1 ROC         0.1814
     61 H12        16.5819   -0.7343    4.3012 H         1 ROC         0.1814
     62 H13        20.4689    0.7942   10.3572 H         1 ROC         0.0672
     63 H14        22.5401    0.1593   11.2300 H         1 ROC         0.2101
     64 H15        18.5626   -0.6882   11.2779 H         1 ROC         0.0606
     65 H16        20.2785   -1.9864    9.2024 H         1 ROC         0.1857
     66 H17        19.6590   -2.1284   12.8517 H         1 ROC         0.0449
     67 H18        20.9593   -2.5382   11.6822 H         1 ROC         0.0449
     68 H19        17.2449   -2.8002   12.1809 H         1 ROC         0.0557
     69 H20        20.7864   -4.4276   10.3622 H         1 ROC         0.0557
     70 H21        15.9339   -4.7272   11.3271 H         1 ROC         0.0599
     71 H22        19.4647   -6.3376    9.5193 H         1 ROC         0.0599
     72 H23        17.0444   -6.4774    9.9926 H         1 ROC         0.0559
     73 H24        18.6558    1.5557   11.8649 H         1 ROC         0.2057
     74 H25        20.2260    0.1936   13.3090 H         1 ROC         0.0841
     75 H26        21.4266    1.3783   12.6908 H         1 ROC         0.0841
     76 H27        19.7370    2.6793   14.3171 H         1 ROC         0.1100
     77 H28        17.4739    3.6677   14.5916 H         1 ROC         0.0348
     78 H29        17.0096    3.0186   12.9823 H         1 ROC         0.0348
     79 H30        19.2324    5.0184   13.5742 H         1 ROC         0.0309
     80 H31        17.8296    6.6127   12.5027 H         1 ROC         0.0268
     81 H32        16.8069    5.7531   13.7035 H         1 ROC         0.0268
     82 H33        15.6393    6.1190   11.5458 H         1 ROC         0.0265
     83 H34        15.8319    4.3760   11.9349 H         1 ROC         0.0265
     84 H35        17.6562    5.9739   10.0657 H         1 ROC         0.0265
     85 H36        16.3386    4.8718    9.5403 H         1 ROC         0.0265
     86 H37        18.4671    3.6500    9.5569 H         1 ROC         0.0270
     87 H38        17.4042    3.0311   10.8660 H         1 ROC         0.0270
     88 H39        19.6419    5.0748   11.1678 H         1 ROC         0.0355
     89 H40        20.3796    2.7223   10.7561 H         1 ROC         0.0818
     90 H41        20.8743    3.4008   12.3440 H         1 ROC         0.0818
     91 H42        19.4042    1.8003   16.0795 H         1 ROC         0.1859
     92 H43        18.9052   -0.2561   18.8376 H         1 ROC         0.0254
     93 H44        18.9322    1.4792   18.3744 H         1 ROC         0.0254
     94 H45        20.2234    0.3742   17.7928 H         1 ROC         0.0254
     95 H46        16.6236   -0.4514   17.9550 H         1 ROC         0.0254
     96 H47        16.2538    0.1655   16.3090 H         1 ROC         0.0254
     97 H48        16.7267    1.3087   17.6114 H         1 ROC         0.0254
     98 H49        18.3233   -1.9928   17.1526 H         1 ROC         0.0254
     99 H50        19.7119   -1.3987   16.1802 H         1 ROC         0.0254
    100 H51        18.0787   -1.5082   15.4403 H         1 ROC         0.0254
@<TRIPOS>BOND
     1   14   13 1  
     2   14   17 1  
     3   15   14 1  
     4   15   16 2  
     5   17   18 1  
     6   18   20 am 
     7   18   19 2  
     8    2    1 2  
     9    2    4 1  
    10   13    2 am 
    11    4    5 ar 
    12    5    6 ar 
    13    6    7 ar 
    14    7    8 ar 
    15    7   12 ar 
    16    8    9 ar 
    17    9   10 ar 
    18   11   10 ar 
    19   12   11 ar 
    20   21   22 1  
    21   21   23 1  
    22   23   24 1  
    23   23   25 1  
    24   24   15 am 
    25   25   26 1  
    26   26   27 ar 
    27   26   28 ar 
    28   27   29 ar 
    29   28   30 ar 
    30   29   31 ar 
    31   30   31 ar 
    32   33   32 1  
    33   32   34 1  
    34   32   44 1  
    35   33   21 1  
    36   34   35 1  
    37   34   37 1  
    38   35   36 2  
    39   35   45 am 
    40   37   38 1  
    41   38   39 1  
    42   38   43 1  
    43   39   40 1  
    44   40   41 1  
    45   41   42 1  
    46   42   43 1  
    47   43   44 1  
    48   45   46 1  
    49   46   47 1  
    50   46   48 1  
    51   46   49 1  
    52   12    3 ar 
    53    4    3 ar 
    54    5   50 1  
    55    6   51 1  
    56    8   52 1  
    57    9   53 1  
    58   10   54 1  
    59   11   55 1  
    60   13   56 1  
    61   14   57 1  
    62   17   58 1  
    63   17   59 1  
    64   20   60 1  
    65   20   61 1  
    66   21   62 1  
    67   22   63 1  
    68   23   64 1  
    69   24   65 1  
    70   25   66 1  
    71   25   67 1  
    72   27   68 1  
    73   28   69 1  
    74   29   70 1  
    75   30   71 1  
    76   31   72 1  
    77   32   73 1  
    78   33   74 1  
    79   33   75 1  
    80   34   76 1  
    81   37   77 1  
    82   37   78 1  
    83   38   79 1  
    84   39   80 1  
    85   39   81 1  
    86   40   82 1  
    87   40   83 1  
    88   41   84 1  
    89   41   85 1  
    90   42   86 1  
    91   42   87 1  
    92   43   88 1  
    93   44   89 1  
    94   44   90 1  
    95   45   91 1  
    96   47   92 1  
    97   47   93 1  
    98   47   94 1  
    99   48   95 1  
   100   48   96 1  
   101   48   97 1  
   102   49   98 1  
   103   49   99 1  
   104   49  100 1  
@<TRIPOS>SUBSTRUCTURE
     1 ROC         1

