### 
### Created by X-TOOL on Mon Sep 10 21:12:49 2018
### 

@<TRIPOS>MOLECULE
1hxk_ligand
   25    25     1     0     0
SMALL
GAST_HUCK


@<TRIPOS>ATOM
      1 C2         32.6990   66.5410    9.3050 C.3       1 DMJ         0.1231
      2 C3         32.7490   66.8930    7.7560 C.3       1 DMJ         0.1171
      3 C1         31.4090   66.9840    9.9570 C.3       1 DMJ        -0.0040
      4 C4         31.4610   66.5350    7.0130 C.3       1 DMJ         0.1280
      5 C5         30.2950   67.1800    7.6790 C.3       1 DMJ         0.0301
      6 C6         28.9460   66.8610    7.0320 C.3       1 DMJ         0.0893
      7 O2         32.9200   65.1540    9.5360 O.3       1 DMJ        -0.3838
      8 O3         33.8270   66.2100    7.1240 O.3       1 DMJ        -0.3862
      9 O4         31.5280   66.9670    5.6500 O.3       1 DMJ        -0.3835
     10 N5         30.1880   66.7560    9.1100 N.4       1 DMJ         0.2346
     11 O6         27.7870   66.9630    7.8360 O.3       1 DMJ        -0.3894
     12 H1         33.5183   67.0926    9.7892 H         1 DMJ         0.0674
     13 H2         32.9114   67.9769    7.6624 H         1 DMJ         0.0649
     14 H3         31.4829   68.0596   10.1753 H         1 DMJ         0.0840
     15 H4         31.2870   66.4265   10.8973 H         1 DMJ         0.0840
     16 H5         31.3296   65.4431    7.0356 H         1 DMJ         0.0678
     17 H6         30.4511   68.2681    7.6379 H         1 DMJ         0.0900
     18 H7         28.9971   65.8270    6.6603 H         1 DMJ         0.0614
     19 H8         28.8182   67.5497    6.1839 H         1 DMJ         0.0614
     20 H9         32.1997   64.6544    9.1697 H         1 DMJ         0.2101
     21 H10        33.8424   66.4312    6.2002 H         1 DMJ         0.2100
     22 H11        31.6475   67.9091    5.6231 H         1 DMJ         0.2102
     23 H12        29.9820   65.7694    9.1249 H         1 DMJ         0.2019
     24 H13        29.4242   67.2651    9.5264 H         1 DMJ         0.2019
     25 H14        27.7040   67.8527    8.1585 H         1 DMJ         0.2097
@<TRIPOS>BOND
     1    1    7 1  
     2    1    3 1  
     3    1    2 1  
     4    2    8 1  
     5    2    4 1  
     6    4    9 1  
     7    4    5 1  
     8    5   10 1  
     9    5    6 1  
    10    6   11 1  
    11   10    3 1  
    12    1   12 1  
    13    2   13 1  
    14    3   14 1  
    15    3   15 1  
    16    4   16 1  
    17    5   17 1  
    18    6   18 1  
    19    6   19 1  
    20    7   20 1  
    21    8   21 1  
    22    9   22 1  
    23   10   23 1  
    24   10   24 1  
    25   11   25 1  
@<TRIPOS>SUBSTRUCTURE
     1 DMJ         1

