### 
### Created by X-TOOL on Mon Sep 10 21:12:46 2018
### 

@<TRIPOS>MOLECULE
1hxw_ligand
   98   101     1     0     0
SMALL
GAST_HUCK


@<TRIPOS>ATOM
      1 C1         16.6620   17.7900    1.4940 C.2       1 RIT        -0.0174
      2 C2         16.2290   17.9350    2.7840 C.2       1 RIT         0.0612
      3 S3         17.3450   17.3240    4.0360 S.3       1 RIT        -0.0006
      4 C4         18.3160   17.1130    2.5550 C.2       1 RIT         0.0672
      5 N5         17.8670   17.3660    1.3770 N.2       1 RIT        -0.3288
      6 C6         15.0730   18.4170    3.4890 C.3       1 RIT         0.1243
      7 O7         15.1860   19.8130    3.7080 O.3       1 RIT        -0.2484
      8 C10        14.2160   20.6020    4.3390 C.2       1 RIT         0.3223
      9 N11        14.6500   21.8720    4.5250 N.am      1 RIT        -0.2549
     10 C12        13.8730   22.9120    5.2280 C.3       1 RIT         0.0793
     11 C13        13.5030   24.1400    4.3920 C.3       1 RIT         0.0821
     12 C14        12.6720   23.8060    3.1710 C.3       1 RIT         0.0004
     13 C15        11.1400   23.5720    3.3150 C.3       1 RIT         0.0540
     14 C18         9.9600   24.2980    5.3480 C.2       1 RIT         0.2020
     15 C19         9.2740   25.5150    5.9960 C.3       1 RIT         0.1335
     16 N20         7.9060   25.6800    5.5030 N.am      1 RIT        -0.2514
     17 C21         7.6650   26.5180    4.4810 C.2       1 RIT         0.2635
     18 O24        13.1030   20.1700    4.6600 O.2       1 RIT        -0.3774
     19 C26        14.2610   23.2430    6.6710 C.3       1 RIT         0.0064
     20 C28        14.8160   22.2250    7.5340 C.ar      1 RIT        -0.0408
     21 C31        13.7990   21.7080    8.3440 C.ar      1 RIT        -0.0603
     22 C32        14.0980   20.6030    9.1570 C.ar      1 RIT        -0.0686
     23 C33        15.3740   20.0130    9.1710 C.ar      1 RIT        -0.0687
     24 C34        16.3920   20.5660    8.3640 C.ar      1 RIT        -0.0686
     25 C35        16.1150   21.6680    7.5490 C.ar      1 RIT        -0.0603
     26 O41        14.7540   24.6640    3.9780 O.3       1 RIT        -0.3893
     27 C44        10.5690   23.5860    1.9290 C.3       1 RIT         0.0040
     28 C45         9.2540   22.9780    2.0010 C.ar      1 RIT        -0.0408
     29 C48         8.1490   23.8450    2.0180 C.ar      1 RIT        -0.0603
     30 C49         6.8360   23.3350    2.0410 C.ar      1 RIT        -0.0686
     31 C50         6.6600   21.9490    2.0260 C.ar      1 RIT        -0.0687
     32 C51         7.7560   21.0900    2.0030 C.ar      1 RIT        -0.0686
     33 C52         9.0590   21.5930    1.9920 C.ar      1 RIT        -0.0603
     34 N58        10.4690   24.5540    4.1370 N.am      1 RIT        -0.2800
     35 O61         9.9680   23.1590    5.8580 O.2       1 RIT        -0.3945
     36 C62         9.2550   25.5670    7.5570 C.3       1 RIT        -0.0065
     37 C64        10.5960   25.2750    8.2820 C.3       1 RIT        -0.0585
     38 C68         8.5650   26.8410    8.0950 C.3       1 RIT        -0.0585
     39 N74         6.4230   26.4000    3.9580 N.am      1 RIT        -0.2534
     40 C75         5.9690   27.3450    2.9380 C.3       1 RIT         0.0647
     41 O76         8.4710   27.4270    4.1920 O.2       1 RIT        -0.4004
     42 C77         5.9100   26.8490    1.5590 C.2       1 RIT         0.0075
     43 C80         7.0240   27.0120    0.7840 C.2       1 RIT        -0.0033
     44 S81         6.6390   26.2570   -0.7850 S.3       1 RIT        -0.0199
     45 C82         5.0870   25.7360   -0.1240 C.2       1 RIT         0.0910
     46 N83         4.8710   26.2630    1.0440 N.2       1 RIT        -0.3157
     47 C85         4.4970   24.8860   -1.0460 C.3       1 RIT         0.0236
     48 C86         4.1390   25.1310   -2.5060 C.3       1 RIT        -0.0458
     49 C90         3.2450   24.3730   -0.4620 C.3       1 RIT        -0.0458
     50 C95         5.4840   25.5080    4.2400 C.3       1 RIT         0.0248
     51 H1         16.0331   18.0167    0.6344 H         1 RIT         0.0425
     52 H2         19.3389   16.7524    2.6531 H         1 RIT         0.1080
     53 H3         14.9958   17.9014    4.4576 H         1 RIT         0.0803
     54 H4         14.1715   18.2137    2.8925 H         1 RIT         0.0803
     55 H5         15.5495   22.1194    4.1649 H         1 RIT         0.1873
     56 H6         12.9017   22.4131    5.3603 H         1 RIT         0.0604
     57 H7         12.9571   24.8678    5.0103 H         1 RIT         0.0619
     58 H8         13.0949   22.8864    2.7404 H         1 RIT         0.0315
     59 H9         12.8014   24.6365    2.4614 H         1 RIT         0.0315
     60 H10        10.9772   22.5827    3.7674 H         1 RIT         0.0579
     61 H11         9.8494   26.3925    5.6662 H         1 RIT         0.0799
     62 H12         7.1549   25.1719    5.9245 H         1 RIT         0.1877
     63 H13        13.3504   23.6127    7.1652 H         1 RIT         0.0449
     64 H14        15.0045   24.0520    6.6196 H         1 RIT         0.0449
     65 H15        12.8083   22.1481    8.3439 H         1 RIT         0.0557
     66 H16        13.3219   20.1926    9.7928 H         1 RIT         0.0599
     67 H17        15.5732   19.1469    9.7918 H         1 RIT         0.0559
     68 H18        17.3873   20.1367    8.3762 H         1 RIT         0.0599
     69 H19        16.8955   22.0946    6.9295 H         1 RIT         0.0557
     70 H20        14.6115   25.4387    3.4469 H         1 RIT         0.2099
     71 H21        11.2141   23.0095    1.2497 H         1 RIT         0.0448
     72 H22        10.4863   24.6210    1.5658 H         1 RIT         0.0448
     73 H23         8.3081   24.9172    2.0134 H         1 RIT         0.0557
     74 H24         5.9822   24.0023    2.0697 H         1 RIT         0.0599
     75 H25         5.6574   21.5369    2.0323 H         1 RIT         0.0559
     76 H26         7.5959   20.0179    1.9935 H         1 RIT         0.0599
     77 H27         9.9078   20.9189    1.9767 H         1 RIT         0.0557
     78 H28        10.3796   25.4831    3.7781 H         1 RIT         0.1856
     79 H29         8.5978   24.7352    7.8506 H         1 RIT         0.0342
     80 H30        10.4471   25.3430    9.3698 H         1 RIT         0.0234
     81 H31        11.3503   26.0116    7.9685 H         1 RIT         0.0234
     82 H32        10.9409   24.2634    8.0217 H         1 RIT         0.0234
     83 H33         7.6226   27.0047    7.5518 H         1 RIT         0.0234
     84 H34         9.2277   27.7066    7.9485 H         1 RIT         0.0234
     85 H35         8.3535   26.7184    9.1675 H         1 RIT         0.0234
     86 H36         6.6534   28.2060    2.9533 H         1 RIT         0.0654
     87 H37         4.9575   27.6755    3.2167 H         1 RIT         0.0654
     88 H38         7.9547   27.5019    1.0664 H         1 RIT         0.0503
     89 H39         5.2124   24.0519   -1.0957 H         1 RIT         0.0551
     90 H40         3.6813   24.2243   -2.9284 H         1 RIT         0.0263
     91 H41         5.0501   25.3788   -3.0704 H         1 RIT         0.0263
     92 H42         3.4270   25.9667   -2.5737 H         1 RIT         0.0263
     93 H43         3.3985   24.1614    0.6065 H         1 RIT         0.0263
     94 H44         2.9505   23.4485   -0.9802 H         1 RIT         0.0263
     95 H45         2.4515   25.1261   -0.5763 H         1 RIT         0.0263
     96 H46         5.8562   24.8142    5.0082 H         1 RIT         0.0485
     97 H47         5.2282   24.9448    3.3304 H         1 RIT         0.0485
     98 H48         4.5884   26.0246    4.6155 H         1 RIT         0.0485
@<TRIPOS>BOND
     1    1    5 1  
     2    1    2 2  
     3    2    6 1  
     4    2    3 1  
     5    3    4 1  
     6    4    5 2  
     7    6    7 1  
     8    7    8 1  
     9    8   18 2  
    10    8    9 am 
    11    9   10 1  
    12   10   19 1  
    13   10   11 1  
    14   11   26 1  
    15   11   12 1  
    16   12   13 1  
    17   13   34 1  
    18   13   27 1  
    19   27   28 1  
    20   28   33 ar 
    21   28   29 ar 
    22   29   30 ar 
    23   30   31 ar 
    24   31   32 ar 
    25   32   33 ar 
    26   34   14 am 
    27   14   35 2  
    28   14   15 1  
    29   15   36 1  
    30   15   16 1  
    31   16   17 am 
    32   17   41 2  
    33   17   39 am 
    34   39   50 1  
    35   39   40 1  
    36   40   42 1  
    37   42   46 1  
    38   42   43 2  
    39   43   44 1  
    40   44   45 1  
    41   45   47 1  
    42   45   46 2  
    43   47   49 1  
    44   47   48 1  
    45   36   38 1  
    46   36   37 1  
    47   19   20 1  
    48   20   25 ar 
    49   20   21 ar 
    50   21   22 ar 
    51   22   23 ar 
    52   23   24 ar 
    53   24   25 ar 
    54    1   51 1  
    55    4   52 1  
    56    6   53 1  
    57    6   54 1  
    58    9   55 1  
    59   10   56 1  
    60   11   57 1  
    61   12   58 1  
    62   12   59 1  
    63   13   60 1  
    64   15   61 1  
    65   16   62 1  
    66   19   63 1  
    67   19   64 1  
    68   21   65 1  
    69   22   66 1  
    70   23   67 1  
    71   24   68 1  
    72   25   69 1  
    73   26   70 1  
    74   27   71 1  
    75   27   72 1  
    76   29   73 1  
    77   30   74 1  
    78   31   75 1  
    79   32   76 1  
    80   33   77 1  
    81   34   78 1  
    82   36   79 1  
    83   37   80 1  
    84   37   81 1  
    85   37   82 1  
    86   38   83 1  
    87   38   84 1  
    88   38   85 1  
    89   40   86 1  
    90   40   87 1  
    91   43   88 1  
    92   47   89 1  
    93   48   90 1  
    94   48   91 1  
    95   48   92 1  
    96   49   93 1  
    97   49   94 1  
    98   49   95 1  
    99   50   96 1  
   100   50   97 1  
   101   50   98 1  
@<TRIPOS>SUBSTRUCTURE
     1 RIT         1

