### 
### Created by X-TOOL on Fri Sep 26 17:34:18 2014
### 

@<TRIPOS>MOLECULE
1i00_ligand
   52    54     1     0     0
SMALL
GAST_HUCK


@<TRIPOS>ATOM
      1 N1         38.3940   58.0230   47.2850 N.2       1 D16        -0.3127
      2 C2         38.5690   56.8360   47.9710 C.2       1 D16         0.1373
      3 CM2        39.8520   56.0670   47.8810 C.3       1 D16         0.0259
      4 N3         37.5000   56.3680   48.7640 N.am      1 D16        -0.1956
      5 C4         36.2640   57.0580   48.8890 C.2       1 D16         0.2337
      6 O4         35.3670   56.6160   49.5870 O.2       1 D16        -0.3861
      7 C4A        36.1340   58.2770   48.1650 C.ar      1 D16         0.0536
      8 C5         34.9740   59.0690   48.1950 C.ar      1 D16        -0.0465
      9 C6         34.8190   60.2930   47.4820 C.ar      1 D16        -0.0230
     10 C7         35.9210   60.7260   46.6910 C.ar      1 D16        -0.0617
     11 C8         37.1340   59.9730   46.6110 C.ar      1 D16        -0.0591
     12 C8A        37.2130   58.7550   47.3580 C.ar      1 D16         0.0063
     13 C9         33.5140   61.1320   47.5520 C.3       1 D16         0.0634
     14 N10        32.3680   60.7160   48.5220 N.pl3     1 D16        -0.2814
     15 C11        33.1580   61.3090   52.3440 C.2       1 D16         0.0792
     16 S13        33.8710   61.4920   50.7740 S.3       1 D16        -0.0060
     17 C14        32.4890   60.8590   49.9640 C.2       1 D16         0.1123
     18 C15        31.5560   60.5310   50.9080 C.2       1 D16        -0.0532
     19 C16        31.9190   60.7790   52.2390 C.2       1 D16        -0.0778
     20 C          34.0060   61.7590   53.5680 C.2       1 D16         0.1901
     21 O          35.1570   62.2250   53.3430 O.2       1 D16        -0.4033
     22 N          33.4510   61.6230   54.8440 N.am      1 D16        -0.2761
     23 CA         34.2460   62.0290   56.0340 C.3       1 D16         0.0943
     24 CB         34.3380   63.5200   56.2880 C.3       1 D16        -0.0066
     25 CG         33.2210   64.5000   56.0330 C.3       1 D16         0.0038
     26 CD         33.0590   65.5730   57.0820 C.2       1 D16         0.0350
     27 OE1        33.5380   66.6960   56.7950 O.co2     1 D16        -0.5690
     28 OE2        32.4620   65.2440   58.1350 O.co2     1 D16        -0.5690
     29 CT         33.7060   61.1800   57.1640 C.2       1 D16         0.0600
     30 O1         34.5400   60.4310   57.7170 O.co2     1 D16        -0.5666
     31 O2         32.4780   61.3010   57.4240 O.co2     1 D16        -0.5666
     32 CP1        31.1480   60.2040   47.8920 C.3       1 D16         0.0236
     33 H1         40.5512   56.5968   47.2174 H         1 D16         0.0525
     34 H2         39.6508   55.0642   47.4761 H         1 D16         0.0525
     35 H3         40.2958   55.9755   48.8833 H         1 D16         0.0525
     36 H4         37.6178   55.5090   49.2623 H         1 D16         0.2524
     37 H5         34.1424   58.7265   48.8002 H         1 D16         0.0581
     38 H6         35.8381   61.6522   46.1340 H         1 D16         0.0576
     39 H7         37.9657   60.3134   46.0049 H         1 D16         0.0542
     40 H8         33.0855   61.1368   46.5389 H         1 D16         0.0677
     41 H9         33.8091   62.1545   47.8302 H         1 D16         0.0677
     42 H10        30.5903   60.1034   50.6422 H         1 D16         0.0234
     43 H11        31.2756   60.5685   53.0920 H         1 D16         0.0466
     44 H12        32.5275   61.2559   54.9558 H         1 D16         0.1851
     45 H13        35.2831   61.7077   55.8573 H         1 D16         0.0725
     46 H14        35.1846   63.8719   55.6802 H         1 D16         0.0323
     47 H15        34.5845   63.6236   57.3550 H         1 D16         0.0323
     48 H16        32.2788   63.9353   55.9748 H         1 D16         0.0432
     49 H17        33.4134   64.9927   55.0685 H         1 D16         0.0432
     50 H18        30.4149   59.9444   48.6699 H         1 D16         0.0494
     51 H19        31.3887   59.3078   47.3013 H         1 D16         0.0494
     52 H20        30.7246   60.9754   47.2320 H         1 D16         0.0494
@<TRIPOS>BOND
     1    1    2 2  
     2   12    1 1  
     3    2    3 1  
     4    4    2 1  
     5    5    4 am 
     6    5    6 2  
     7    7    5 1  
     8    8    7 ar 
     9    7   12 ar 
    10    9    8 ar 
    11    9   10 ar 
    12   13    9 1  
    13   10   11 ar 
    14   11   12 ar 
    15   14   13 1  
    16   17   14 1  
    17   14   32 1  
    18   16   15 1  
    19   15   19 2  
    20   15   20 1  
    21   16   17 1  
    22   17   18 2  
    23   18   19 1  
    24   20   21 2  
    25   20   22 am 
    26   22   23 1  
    27   23   24 1  
    28   23   29 1  
    29   24   25 1  
    30   25   26 1  
    31   26   27 ar 
    32   26   28 ar 
    33   29   30 ar 
    34   29   31 ar 
    35    3   33 1  
    36    3   34 1  
    37    3   35 1  
    38    4   36 1  
    39    8   37 1  
    40   10   38 1  
    41   11   39 1  
    42   13   40 1  
    43   13   41 1  
    44   18   42 1  
    45   19   43 1  
    46   22   44 1  
    47   23   45 1  
    48   24   46 1  
    49   24   47 1  
    50   25   48 1  
    51   25   49 1  
    52   32   50 1  
    53   32   51 1  
    54   32   52 1  
@<TRIPOS>SUBSTRUCTURE
     1 D16         1

