### 
### Created by X-TOOL on Mon Sep 10 21:12:48 2018
### 

@<TRIPOS>MOLECULE
1i1e_ligand
   71    75     1     0     0
SMALL
GAST_HUCK


@<TRIPOS>ATOM
      1 C1         32.6390  -37.7100  -36.4450 C.ar      1 DM2        -0.0796
      2 C2         33.9650  -38.2260  -36.2490 C.ar      1 DM2        -0.0854
      3 C3         35.0940  -37.3320  -36.3490 C.ar      1 DM2        -0.0449
      4 C4         34.9040  -35.9160  -36.6400 C.ar      1 DM2         0.0943
      5 O4         36.0240  -35.0590  -36.7340 O.3       1 DM2        -0.3190
      6 C5         33.5580  -35.3900  -36.8440 C.ar      1 DM2         0.0365
      7 C6         33.2970  -33.9790  -37.1450 C.ar      1 DM2         0.0935
      8 O6         34.3500  -33.0910  -37.2450 O.3       1 DM2        -0.3374
      9 C7         31.9480  -33.4320  -37.3650 C.ar      1 DM2         0.0246
     10 C8         31.6510  -32.0160  -37.6730 C.ar      1 DM2         0.0790
     11 O8         32.6150  -31.0140  -37.8060 O.3       1 DM2        -0.3467
     12 C9         30.2660  -31.5910  -37.8690 C.ar      1 DM2        -0.0015
     13 C10        30.0050  -30.1160  -38.1860 C.3       1 DM2         0.0868
     14 O10        30.5500  -30.1210  -39.5430 O.3       1 DM2        -0.3397
     15 C11        28.5230  -29.5880  -38.0720 C.3       1 DM2         0.0153
     16 C12        27.6410  -30.6840  -38.8450 C.3       1 DM2         0.1402
     17 O12        28.0110  -31.0840  -40.2110 O.3       1 DM2        -0.3842
     18 C13        26.1070  -30.3860  -38.8870 C.2       1 DM2         0.1852
     19 O13        25.3170  -30.7210  -40.0000 O.2       1 DM2        -0.3270
     20 C14        25.4500  -29.7610  -37.7220 C.3       1 DM2         0.1214
     21 O14        24.0460  -29.5800  -37.8920 O.3       1 DM2        -0.3762
     22 C15        27.7750  -32.0170  -37.9870 C.3       1 DM2         0.0049
     23 C16        29.2010  -32.4930  -37.7760 C.ar      1 DM2        -0.0261
     24 C17        29.4750  -33.8720  -37.4740 C.ar      1 DM2         0.0758
     25 O17        28.3890  -34.7000  -37.3910 O.3       1 DM2        -0.3476
     26 C18        30.8310  -34.3710  -37.2610 C.ar      1 DM2         0.0215
     27 C19        31.0860  -35.7960  -36.9480 C.ar      1 DM2         0.0835
     28 O19        30.0390  -36.6260  -36.8620 O.3       1 DM2        -0.3422
     29 C20        32.4300  -36.2800  -36.7460 C.ar      1 DM2        -0.0092
     30 C21        37.3960  -35.5770  -36.5380 C.3       1 DM2         0.0611
     31 C1'        31.4710  -29.1430  -40.0310 C.3       1 DM2         0.1667
     32 C2'        32.3720  -29.8650  -41.1260 C.3       1 DM2         0.0440
     33 C3'        31.3780  -30.3210  -42.2650 C.3       1 DM2         0.0093
     34 N3'        32.1870  -31.0210  -43.3760 N.4       1 DM2         0.2228
     35 C4'        30.6210  -29.1120  -42.8390 C.3       1 DM2         0.1234
     36 O4'        31.6990  -28.2160  -43.3630 O.3       1 DM2        -0.3836
     37 C5'        29.7750  -28.4270  -41.7480 C.3       1 DM2         0.0900
     38 O5'        30.7020  -27.9910  -40.6110 O.3       1 DM2        -0.3453
     39 C6'        29.0090  -27.1770  -42.2670 C.3       1 DM2        -0.0359
     40 H1         31.7861  -38.3750  -36.3714 H         1 DM2         0.0451
     41 H2         34.1165  -39.2764  -36.0282 H         1 DM2         0.0521
     42 H3         36.0965  -37.7186  -36.2058 H         1 DM2         0.0428
     43 H4         34.0144  -32.2245  -37.4427 H         1 DM2         0.2482
     44 H5         32.1875  -30.1891  -38.0038 H         1 DM2         0.2425
     45 H6         30.6151  -29.4796  -37.5282 H         1 DM2         0.0706
     46 H7         28.4241  -28.6025  -38.5505 H         1 DM2         0.0321
     47 H8         28.2165  -29.5163  -37.0180 H         1 DM2         0.0321
     48 H9         28.8871  -31.4511  -40.2059 H         1 DM2         0.2078
     49 H10        25.9098  -28.7768  -37.5491 H         1 DM2         0.0786
     50 H11        25.6148  -30.4021  -36.8435 H         1 DM2         0.0786
     51 H12        23.6833  -29.1758  -37.1125 H         1 DM2         0.2129
     52 H13        27.2202  -32.8143  -38.5032 H         1 DM2         0.0388
     53 H14        27.3242  -31.8364  -37.0000 H         1 DM2         0.0388
     54 H15        28.6792  -35.5817  -37.1889 H         1 DM2         0.2419
     55 H16        29.5763  -36.6373  -37.6916 H         1 DM2         0.2456
     56 H17        38.1180  -34.7550  -36.6521 H         1 DM2         0.0582
     57 H18        37.6047  -36.3550  -37.2871 H         1 DM2         0.0582
     58 H19        37.4853  -36.0061  -35.5291 H         1 DM2         0.0582
     59 H20        32.1069  -28.7774  -39.2113 H         1 DM2         0.0913
     60 H21        32.8809  -30.7370  -40.6895 H         1 DM2         0.0370
     61 H22        33.1208  -29.1665  -41.5277 H         1 DM2         0.0370
     62 H23        30.6492  -31.0302  -41.8457 H         1 DM2         0.0878
     63 H24        31.5630  -31.3173  -44.1101 H         1 DM2         0.1998
     64 H25        32.6596  -31.8243  -42.9922 H         1 DM2         0.1998
     65 H26        32.8670  -30.3789  -43.7519 H         1 DM2         0.1998
     66 H27        29.9581  -29.4272  -43.6583 H         1 DM2         0.0676
     67 H28        32.2776  -27.9689  -42.6513 H         1 DM2         0.2102
     68 H29        29.0425  -29.1532  -41.3657 H         1 DM2         0.0622
     69 H30        28.4270  -26.7359  -41.4444 H         1 DM2         0.0255
     70 H31        28.3290  -27.4746  -43.0788 H         1 DM2         0.0255
     71 H32        29.7292  -26.4364  -42.6449 H         1 DM2         0.0255
@<TRIPOS>BOND
     1    1    2 ar 
     2    1   29 ar 
     3    2    3 ar 
     4    3    4 ar 
     5    4    5 1  
     6    4    6 ar 
     7    5   30 1  
     8    6    7 ar 
     9    6   29 ar 
    10    7    8 1  
    11    7    9 ar 
    12    9   10 ar 
    13    9   26 ar 
    14   10   11 1  
    15   10   12 ar 
    16   12   13 1  
    17   12   23 ar 
    18   13   14 1  
    19   13   15 1  
    20   14   31 1  
    21   15   16 1  
    22   16   17 1  
    23   16   18 1  
    24   16   22 1  
    25   18   19 2  
    26   18   20 1  
    27   20   21 1  
    28   22   23 1  
    29   23   24 ar 
    30   24   25 1  
    31   24   26 ar 
    32   26   27 ar 
    33   27   28 1  
    34   27   29 ar 
    35   31   32 1  
    36   31   38 1  
    37   32   33 1  
    38   33   34 1  
    39   33   35 1  
    40   35   36 1  
    41   35   37 1  
    42   37   38 1  
    43   37   39 1  
    44    1   40 1  
    45    2   41 1  
    46    3   42 1  
    47    8   43 1  
    48   11   44 1  
    49   13   45 1  
    50   15   46 1  
    51   15   47 1  
    52   17   48 1  
    53   20   49 1  
    54   20   50 1  
    55   21   51 1  
    56   22   52 1  
    57   22   53 1  
    58   25   54 1  
    59   28   55 1  
    60   30   56 1  
    61   30   57 1  
    62   30   58 1  
    63   31   59 1  
    64   32   60 1  
    65   32   61 1  
    66   33   62 1  
    67   34   63 1  
    68   34   64 1  
    69   34   65 1  
    70   35   66 1  
    71   36   67 1  
    72   37   68 1  
    73   39   69 1  
    74   39   70 1  
    75   39   71 1  
@<TRIPOS>SUBSTRUCTURE
     1 DM2         1

