### 
### Created by X-TOOL on Mon Sep 10 21:12:49 2018
### 

@<TRIPOS>MOLECULE
1i2s_ligand
   18    17     1     0     0
SMALL
GAST_HUCK


@<TRIPOS>ATOM
      1 C1         24.9790   -4.7030   12.9270 C.2       1 CIT         0.0371
      2 O1         23.8350   -4.3210   13.6680 O.co2     1 CIT        -0.5690
      3 O2         25.5880   -3.8930   12.1800 O.co2     1 CIT        -0.5690
      4 C2         25.3520   -6.2090   13.1670 C.3       1 CIT         0.0356
      5 C3         26.2260   -6.3710   14.4710 C.3       1 CIT         0.1328
      6 O7         27.4960   -5.7060   14.2300 O.3       1 CIT        -0.3818
      7 C4         26.4080   -7.9180   14.7860 C.3       1 CIT         0.0356
      8 C5         27.0150   -8.1090   16.2380 C.2       1 CIT         0.0371
      9 O3         27.4180   -7.1790   17.0030 O.co2     1 CIT        -0.5690
     10 O4         27.0780   -9.4750   16.6260 O.co2     1 CIT        -0.5690
     11 C6         25.5230   -5.6980   15.7250 C.2       1 CIT         0.0796
     12 O5         25.9130   -4.6430   16.2870 O.co2     1 CIT        -0.5449
     13 O6         24.3840   -6.4300   16.1620 O.co2     1 CIT        -0.5449
     14 H1         25.9219   -6.5812   12.3029 H         1 CIT         0.0452
     15 H2         24.4282   -6.7958   13.2773 H         1 CIT         0.0452
     16 H3         28.0458   -5.7869   15.0005 H         1 CIT         0.2091
     17 H4         27.0889   -8.3627   14.0454 H         1 CIT         0.0452
     18 H5         25.4298   -8.4182   14.7317 H         1 CIT         0.0452
@<TRIPOS>BOND
     1    1    2 ar 
     2    1    3 ar 
     3    1    4 1  
     4    4    5 1  
     5    5    6 1  
     6    5    7 1  
     7    5   11 1  
     8    7    8 1  
     9    8    9 ar 
    10    8   10 ar 
    11   11   12 ar 
    12   11   13 ar 
    13    4   14 1  
    14    4   15 1  
    15    6   16 1  
    16    7   17 1  
    17    7   18 1  
@<TRIPOS>SUBSTRUCTURE
     1 CIT         1

