### 
### Created by X-TOOL on Mon Sep 10 21:12:48 2018
### 

@<TRIPOS>MOLECULE
1i32_ligand
   72    77     1     0     0
SMALL
GAST_HUCK


@<TRIPOS>ATOM
      1 C5         22.8230   79.7350   -1.1320 C.3       1 NMD         0.0730
      2 C4         23.9020   79.9230   -2.2110 C.3       1 NMD         0.1133
      3 O4         23.4310   80.6340   -3.3530 O.3       1 NMD        -0.3371
      4 C3         25.1290   80.6880   -1.7370 C.3       1 NMD         0.1115
      5 O3         26.3130   80.2440   -2.3960 O.3       1 NMD        -0.3867
      6 C2         24.7380   82.1400   -2.0340 C.3       1 NMD         0.1249
      7 N2         25.8600   83.0550   -2.2250 N.am      1 NMD        -0.2753
      8 C1         23.8610   81.9980   -3.2910 C.3       1 NMD         0.1979
      9 N9A        22.7130   82.9000   -3.3940 N.pl3     1 NMD        -0.1922
     10 C8A        22.0580   83.5870   -2.4020 C.2       1 NMD         0.1123
     11 N7A        21.0540   84.3220   -2.8270 N.2       1 NMD        -0.2957
     12 C5A        21.0360   84.1100   -4.1980 C.ar      1 NMD         0.1048
     13 C6A        20.2070   84.5980   -5.2650 C.ar      1 NMD         0.1344
     14 N6A        19.1690   85.4560   -5.1340 N.pl3     1 NMD        -0.2890
     15 N1A        20.4860   84.1630   -6.5290 N.ar      1 NMD        -0.2695
     16 C2A        21.5070   83.3100   -6.7350 C.ar      1 NMD         0.0533
     17 N3A        22.3420   82.7950   -5.8200 N.ar      1 NMD        -0.2714
     18 C4A        22.0560   83.2320   -4.5660 C.ar      1 NMD         0.1613
     19 C11        18.6670   86.0570   -3.8940 C.3       1 NMD         0.0656
     20 C1         19.0620   87.5020   -3.6200 C.ar      1 NMD        -0.0099
     21 C9         18.7150   88.1450   -2.3740 C.ar      1 NMD        -0.0102
     22 C8         17.9880   87.4810   -1.3330 C.ar      1 NMD        -0.0547
     23 C7         17.6640   88.1460   -0.1160 C.ar      1 NMD        -0.0625
     24 C6         18.0640   89.4950    0.0870 C.ar      1 NMD        -0.0629
     25 C2         19.7870   88.2350   -4.6090 C.ar      1 NMD        -0.0588
     26 C10        19.1190   89.5240   -2.1550 C.ar      1 NMD        -0.0242
     27 C5         18.7880   90.1780   -0.9310 C.ar      1 NMD        -0.0569
     28 C3         20.1760   89.5830   -4.3880 C.ar      1 NMD        -0.0706
     29 C4         19.8420   90.2220   -3.1640 C.ar      1 NMD        -0.0631
     30 C7B        26.1750   84.1240   -1.4490 C.2       1 NMD         0.2005
     31 O7B        25.5440   84.3930   -0.4180 O.2       1 NMD        -0.3847
     32 C6B        27.3140   84.9820   -1.8820 C.ar      1 NMD         0.0328
     33 C5B        28.0180   84.6410   -3.0730 C.ar      1 NMD        -0.0246
     34 C4B        29.1100   85.4270   -3.5320 C.ar      1 NMD         0.0875
     35 O2M        29.7380   85.0340   -4.6900 O.3       1 NMD        -0.3230
     36 C2M        30.9480   84.2800   -4.5840 C.3       1 NMD         0.0592
     37 C3B        29.4950   86.5760   -2.7770 C.ar      1 NMD        -0.0011
     38 C1B        27.7080   86.1340   -1.1320 C.ar      1 NMD        -0.0246
     39 C2B        28.8020   86.9440   -1.5730 C.ar      1 NMD         0.0875
     40 O1M        29.1390   88.0440   -0.8080 O.3       1 NMD        -0.3230
     41 C1M        29.4950   89.2710   -1.4590 C.3       1 NMD         0.0592
     42 O5         23.3320   78.9520   -0.0530 O.3       1 NMD        -0.3924
     43 H1         21.9543   79.2240   -1.5728 H         1 NMD         0.0584
     44 H2         22.5149   80.7200   -0.7516 H         1 NMD         0.0584
     45 H3         24.2187   78.9182   -2.5273 H         1 NMD         0.0647
     46 H4         25.2716   80.5538   -0.6546 H         1 NMD         0.0645
     47 H5         27.0570   80.7412   -2.0771 H         1 NMD         0.2100
     48 H6         24.1344   82.5315   -1.2019 H         1 NMD         0.0638
     49 H7         26.4572   82.8762   -3.0069 H         1 NMD         0.1851
     50 H8         24.5018   82.2026   -4.1613 H         1 NMD         0.0993
     51 H9         22.3453   83.5282   -1.3532 H         1 NMD         0.1349
     52 H10        18.6771   85.7157   -6.0009 H         1 NMD         0.1885
     53 H11        21.6741   83.0032   -7.7612 H         1 NMD         0.0996
     54 H12        19.0356   85.4471   -3.0560 H         1 NMD         0.0702
     55 H13        17.5683   86.0128   -3.9242 H         1 NMD         0.0702
     56 H14        17.6784   86.4518   -1.4746 H         1 NMD         0.0628
     57 H15        17.1118   87.6230    0.6564 H         1 NMD         0.0601
     58 H16        17.8187   90.0017    1.0134 H         1 NMD         0.0616
     59 H17        20.0450   87.7535   -5.5453 H         1 NMD         0.0530
     60 H18        19.0913   91.2069   -0.7743 H         1 NMD         0.0609
     61 H19        20.7259   90.1224   -5.1507 H         1 NMD         0.0595
     62 H20        20.1403   91.2506   -2.9965 H         1 NMD         0.0542
     63 H21        27.7157   83.7672   -3.6388 H         1 NMD         0.0501
     64 H22        31.3229   84.0449   -5.5911 H         1 NMD         0.0577
     65 H23        30.7510   83.3452   -4.0387 H         1 NMD         0.0577
     66 H24        31.7011   84.8697   -4.0408 H         1 NMD         0.0577
     67 H25        30.3260   87.1825   -3.1185 H         1 NMD         0.0498
     68 H26        27.1752   86.3950   -0.2248 H         1 NMD         0.0501
     69 H27        29.7314   90.0328   -0.7015 H         1 NMD         0.0577
     70 H28        28.6525   89.6166   -2.0760 H         1 NMD         0.0577
     71 H29        30.3742   89.1050   -2.0988 H         1 NMD         0.0577
     72 H30        22.6555   78.8442    0.6052 H         1 NMD         0.2095
@<TRIPOS>BOND
     1    1    2 1  
     2    1   42 1  
     3    2    3 1  
     4    2    4 1  
     5    3    8 1  
     6    4    5 1  
     7    4    6 1  
     8    6    7 1  
     9    6    8 1  
    10    7   30 am 
    11    8    9 1  
    12    9   10 1  
    13    9   18 1  
    14   10   11 2  
    15   11   12 1  
    16   12   13 ar 
    17   12   18 ar 
    18   13   14 1  
    19   13   15 ar 
    20   14   19 1  
    21   15   16 ar 
    22   16   17 ar 
    23   17   18 ar 
    24   19   20 1  
    25   20   21 ar 
    26   20   25 ar 
    27   21   22 ar 
    28   21   26 ar 
    29   22   23 ar 
    30   23   24 ar 
    31   24   27 ar 
    32   25   28 ar 
    33   26   27 ar 
    34   26   29 ar 
    35   28   29 ar 
    36   30   31 2  
    37   30   32 1  
    38   32   33 ar 
    39   32   38 ar 
    40   33   34 ar 
    41   34   35 1  
    42   34   37 ar 
    43   35   36 1  
    44   37   39 ar 
    45   38   39 ar 
    46   39   40 1  
    47   40   41 1  
    48    1   43 1  
    49    1   44 1  
    50    2   45 1  
    51    4   46 1  
    52    5   47 1  
    53    6   48 1  
    54    7   49 1  
    55    8   50 1  
    56   10   51 1  
    57   14   52 1  
    58   16   53 1  
    59   19   54 1  
    60   19   55 1  
    61   22   56 1  
    62   23   57 1  
    63   24   58 1  
    64   25   59 1  
    65   27   60 1  
    66   28   61 1  
    67   29   62 1  
    68   33   63 1  
    69   36   64 1  
    70   36   65 1  
    71   36   66 1  
    72   37   67 1  
    73   38   68 1  
    74   41   69 1  
    75   41   70 1  
    76   41   71 1  
    77   42   72 1  
@<TRIPOS>SUBSTRUCTURE
     1 NMD         1

