### 
### Created by X-TOOL on Mon Sep 10 21:12:48 2018
### 

@<TRIPOS>MOLECULE
1i33_ligand
   73    78     1     0     0
SMALL
GAST_HUCK


@<TRIPOS>ATOM
      1 C5         23.0810   79.3270   -1.2230 C.3       1 TND         0.0730
      2 C4         23.8860   79.5970   -2.5110 C.3       1 TND         0.1133
      3 O4         23.1530   80.3810   -3.4770 O.3       1 TND        -0.3371
      4 C3         25.1990   80.3370   -2.2690 C.3       1 TND         0.1115
      5 O3         26.2470   79.8800   -3.1240 O.3       1 TND        -0.3867
      6 C2         24.7770   81.7890   -2.4730 C.3       1 TND         0.1249
      7 N2         25.8550   82.7590   -2.6710 N.am      1 TND        -0.2753
      8 C1         23.7800   81.6800   -3.6380 C.3       1 TND         0.1979
      9 N9A        22.7600   82.7420   -3.7060 N.pl3     1 TND        -0.1922
     10 C8A        22.2810   83.5390   -2.6910 C.2       1 TND         0.1123
     11 N7A        21.3630   84.4030   -3.0660 N.2       1 TND        -0.2957
     12 C5A        21.2100   84.1710   -4.4260 C.ar      1 TND         0.1048
     13 C6A        20.3650   84.7650   -5.4510 C.ar      1 TND         0.1343
     14 N6A        19.4650   85.7740   -5.2460 N.pl3     1 TND        -0.2882
     15 N1A        20.4800   84.2700   -6.7330 N.ar      1 TND        -0.2695
     16 C2A        21.3630   83.2670   -6.9850 C.ar      1 TND         0.0533
     17 N3A        22.1930   82.6470   -6.1140 N.ar      1 TND        -0.2714
     18 C4A        22.0700   83.1430   -4.8460 C.ar      1 TND         0.1613
     19 C1         19.2930   86.5550   -4.0010 C.3       1 TND         0.0723
     20 C9         19.3880   88.0770   -4.2170 C.ar      1 TND        -0.0155
     21 C8         19.9150   88.6680   -5.5020 C.ar      1 TND        -0.0646
     22 C7         19.9820   90.1610   -5.6520 C.ar      1 TND        -0.0754
     23 C6         19.5290   91.0590   -4.5330 C.ar      1 TND        -0.0755
     24 C2         17.9800   86.1370   -3.2640 C.3       1 TND        -0.0189
     25 C10        18.9330   88.9750   -3.0990 C.ar      1 TND        -0.0388
     26 C5         19.0020   90.4740   -3.2500 C.ar      1 TND        -0.0668
     27 C3         17.4980   87.0940   -2.1020 C.3       1 TND        -0.0405
     28 C4         18.3980   88.3360   -1.8060 C.3       1 TND        -0.0213
     29 C7B        26.2490   83.6630   -1.7220 C.2       1 TND         0.2005
     30 O7B        25.7060   83.7060   -0.6060 O.2       1 TND        -0.3847
     31 C6B        27.3150   84.6520   -2.0640 C.ar      1 TND         0.0328
     32 C5B        28.2510   84.3590   -3.1130 C.ar      1 TND        -0.0246
     33 C4B        29.2920   85.3010   -3.4640 C.ar      1 TND         0.0875
     34 O2M        30.1950   84.9930   -4.4830 O.3       1 TND        -0.3230
     35 C2M        30.1030   83.7500   -5.2050 C.3       1 TND         0.0592
     36 C3B        29.3620   86.5390   -2.7370 C.ar      1 TND        -0.0011
     37 C1B        27.4060   85.8980   -1.3460 C.ar      1 TND        -0.0246
     38 C2B        28.4230   86.8530   -1.6720 C.ar      1 TND         0.0875
     39 O1M        28.4350   88.0290   -0.9310 O.3       1 TND        -0.3230
     40 C1M        29.3370   89.1010   -1.2810 C.3       1 TND         0.0592
     41 O5         23.9470   78.8510   -0.1820 O.3       1 TND        -0.3924
     42 H1         22.3112   78.5687   -1.4290 H         1 TND         0.0584
     43 H2         22.5986   80.2595   -0.8949 H         1 TND         0.0584
     44 H3         24.1171   78.6189   -2.9581 H         1 TND         0.0647
     45 H4         25.5313   80.1918   -1.2305 H         1 TND         0.0645
     46 H5         27.0411   80.3672   -2.9380 H         1 TND         0.2100
     47 H6         24.2339   82.1206   -1.5757 H         1 TND         0.0638
     48 H7         26.3311   82.7613   -3.5504 H         1 TND         0.1851
     49 H8         24.3431   81.7025   -4.5827 H         1 TND         0.0993
     50 H9         22.6328   83.4607   -1.6634 H         1 TND         0.1349
     51 H10        18.8471   86.0135   -6.0345 H         1 TND         0.1883
     52 H11        21.4077   82.9209   -8.0113 H         1 TND         0.0996
     53 H12        20.1295   86.2837   -3.3402 H         1 TND         0.0710
     54 H13        20.2418   88.0215   -6.3084 H         1 TND         0.0538
     55 H14        20.3588   90.5939   -6.5716 H         1 TND         0.0541
     56 H15        19.5825   92.1352   -4.6516 H         1 TND         0.0541
     57 H16        18.1410   85.1385   -2.8315 H         1 TND         0.0310
     58 H17        17.1759   86.0869   -4.0129 H         1 TND         0.0310
     59 H18        18.6761   91.1222   -2.4446 H         1 TND         0.0537
     60 H19        17.4381   86.4970   -1.1801 H         1 TND         0.0288
     61 H20        16.4958   87.4625   -2.3661 H         1 TND         0.0288
     62 H21        17.8047   89.0832   -1.2586 H         1 TND         0.0411
     63 H22        19.2499   88.0188   -1.1866 H         1 TND         0.0411
     64 H23        28.1768   83.4197   -3.6490 H         1 TND         0.0501
     65 H24        30.9020   83.7043   -5.9596 H         1 TND         0.0577
     66 H25        29.1243   83.6868   -5.7031 H         1 TND         0.0577
     67 H26        30.2126   82.9096   -4.5037 H         1 TND         0.0577
     68 H27        30.1343   87.2567   -2.9890 H         1 TND         0.0498
     69 H28        26.6994   86.1145   -0.5530 H         1 TND         0.0501
     70 H29        29.1981   89.9397   -0.5829 H         1 TND         0.0577
     71 H30        29.1251   89.4385   -2.3063 H         1 TND         0.0577
     72 H31        30.3748   88.7415   -1.2204 H         1 TND         0.0577
     73 H32        23.4373   78.6896    0.6032 H         1 TND         0.2095
@<TRIPOS>BOND
     1    1    2 1  
     2    1   41 1  
     3    2    3 1  
     4    2    4 1  
     5    3    8 1  
     6    4    5 1  
     7    4    6 1  
     8    6    7 1  
     9    6    8 1  
    10    7   29 am 
    11    8    9 1  
    12    9   10 1  
    13    9   18 1  
    14   10   11 2  
    15   11   12 1  
    16   12   13 ar 
    17   12   18 ar 
    18   13   14 1  
    19   13   15 ar 
    20   14   19 1  
    21   15   16 ar 
    22   16   17 ar 
    23   17   18 ar 
    24   19   20 1  
    25   19   24 1  
    26   20   21 ar 
    27   20   25 ar 
    28   21   22 ar 
    29   22   23 ar 
    30   23   26 ar 
    31   24   27 1  
    32   25   26 ar 
    33   25   28 1  
    34   27   28 1  
    35   29   30 2  
    36   29   31 1  
    37   31   32 ar 
    38   31   37 ar 
    39   32   33 ar 
    40   33   34 1  
    41   33   36 ar 
    42   34   35 1  
    43   36   38 ar 
    44   37   38 ar 
    45   38   39 1  
    46   39   40 1  
    47    1   42 1  
    48    1   43 1  
    49    2   44 1  
    50    4   45 1  
    51    5   46 1  
    52    6   47 1  
    53    7   48 1  
    54    8   49 1  
    55   10   50 1  
    56   14   51 1  
    57   16   52 1  
    58   19   53 1  
    59   21   54 1  
    60   22   55 1  
    61   23   56 1  
    62   24   57 1  
    63   24   58 1  
    64   26   59 1  
    65   27   60 1  
    66   27   61 1  
    67   28   62 1  
    68   28   63 1  
    69   32   64 1  
    70   35   65 1  
    71   35   66 1  
    72   35   67 1  
    73   36   68 1  
    74   37   69 1  
    75   40   70 1  
    76   40   71 1  
    77   40   72 1  
    78   41   73 1  
@<TRIPOS>SUBSTRUCTURE
     1 TND         1

