### 
### Created by X-TOOL on Mon Sep 10 21:12:48 2018
### 

@<TRIPOS>MOLECULE
1i37_ligand
   49    52     1     0     0
SMALL
GAST_HUCK


@<TRIPOS>ATOM
      1 C1         27.6850    5.1990    4.5650 C.3       1 DHT        -0.0611
      2 C2         26.8140    6.4850    4.6360 C.3       1 DHT         0.0243
      3 C3         25.4840    6.2800    3.9440 C.2       1 DHT         0.1764
      4 O3         24.9040    7.2490    3.4480 O.2       1 DHT        -0.3440
      5 C4         24.8870    4.9640    3.8570 C.2       1 DHT         0.0476
      6 C5         25.4640    3.9030    4.3570 C.2       1 DHT        -0.0413
      7 C6         24.7270    2.5600    4.2410 C.3       1 DHT        -0.0169
      8 C7         25.6130    1.4540    3.6090 C.3       1 DHT        -0.0393
      9 C8         26.9550    1.3030    4.3590 C.3       1 DHT        -0.0416
     10 C9         27.7080    2.6560    4.2790 C.3       1 DHT        -0.0619
     11 C10        26.9430    3.8760    4.9490 C.3       1 DHT        -0.0378
     12 C11        29.1610    2.5250    4.8300 C.3       1 DHT        -0.0583
     13 C12        29.9510    1.3440    4.1920 C.3       1 DHT        -0.0456
     14 C13        29.1940   -0.0100    4.3390 C.3       1 DHT        -0.0031
     15 C14        27.7840    0.2120    3.6800 C.3       1 DHT        -0.0309
     16 C15        27.1780   -1.2320    3.6470 C.3       1 DHT        -0.0470
     17 C16        28.4350   -2.1180    3.3100 C.3       1 DHT        -0.0261
     18 C17        29.6790   -1.1890    3.4260 C.3       1 DHT         0.0609
     19 O17        30.9100   -1.9180    3.9810 O.3       1 DHT        -0.3912
     20 C18        29.1070   -0.4500    5.8470 C.3       1 DHT        -0.0569
     21 C19        26.7810    3.7700    6.5240 C.3       1 DHT        -0.0890
     22 H1         28.5356    5.3246    5.2510 H         1 DHT         0.0172
     23 H2         28.0568    5.0951    3.5350 H         1 DHT         0.0172
     24 H3         27.3509    7.3103    4.1455 H         1 DHT         0.0483
     25 H4         26.6347    6.7399    5.6909 H         1 DHT         0.0483
     26 H5         23.9251    4.8543    3.3584 H         1 DHT         0.1318
     27 H6         23.8344    2.6995    3.6135 H         1 DHT         0.0450
     28 H7         24.4213    2.2363    5.2469 H         1 DHT         0.0450
     29 H8         25.8176    1.7161    2.5605 H         1 DHT         0.0293
     30 H9         25.0721    0.4970    3.6489 H         1 DHT         0.0293
     31 H10        26.7737    1.0346    5.4102 H         1 DHT         0.0298
     32 H11        27.7933    2.8976    3.2093 H         1 DHT         0.0187
     33 H12        29.1103    2.3657    5.9172 H         1 DHT         0.0259
     34 H13        29.7005    3.4606    4.6212 H         1 DHT         0.0259
     35 H14        30.9285    1.2604    4.6895 H         1 DHT         0.0271
     36 H15        30.1006    1.5531    3.1225 H         1 DHT         0.0271
     37 H16        27.9280    0.5436    2.6411 H         1 DHT         0.0309
     38 H17        26.4069   -1.3224    2.8677 H         1 DHT         0.0269
     39 H18        26.7480   -1.5056    4.6218 H         1 DHT         0.0269
     40 H19        28.3543   -2.5182    2.2886 H         1 DHT         0.0290
     41 H20        28.5152   -2.9503    4.0247 H         1 DHT         0.0290
     42 H21        29.9403   -0.7979    2.4317 H         1 DHT         0.0599
     43 H22        30.7139   -2.2534    4.8478 H         1 DHT         0.2098
     44 H23        28.7647    0.3987    6.4574 H         1 DHT         0.0236
     45 H24        30.1000   -0.7732    6.1926 H         1 DHT         0.0236
     46 H25        28.3954   -1.2830    5.9455 H         1 DHT         0.0236
     47 H26        26.2426    4.6535    6.8975 H         1 DHT         0.0112
     48 H27        27.7751    3.7213    6.9924 H         1 DHT         0.0112
     49 H28        26.2130    2.8618    6.7739 H         1 DHT         0.0112
@<TRIPOS>BOND
     1    1    2 1  
     2    1   11 1  
     3    2    3 1  
     4    3    4 2  
     5    3    5 1  
     6    5    6 2  
     7    6    7 1  
     8    6   11 1  
     9    7    8 1  
    10    8    9 1  
    11    9   10 1  
    12    9   15 1  
    13   10   11 1  
    14   10   12 1  
    15   11   21 1  
    16   12   13 1  
    17   13   14 1  
    18   14   15 1  
    19   14   18 1  
    20   14   20 1  
    21   15   16 1  
    22   16   17 1  
    23   17   18 1  
    24   18   19 1  
    25    1   22 1  
    26    1   23 1  
    27    2   24 1  
    28    2   25 1  
    29    5   26 1  
    30    7   27 1  
    31    7   28 1  
    32    8   29 1  
    33    8   30 1  
    34    9   31 1  
    35   10   32 1  
    36   12   33 1  
    37   12   34 1  
    38   13   35 1  
    39   13   36 1  
    40   15   37 1  
    41   16   38 1  
    42   16   39 1  
    43   17   40 1  
    44   17   41 1  
    45   18   42 1  
    46   19   43 1  
    47   20   44 1  
    48   20   45 1  
    49   20   46 1  
    50   21   47 1  
    51   21   48 1  
    52   21   49 1  
@<TRIPOS>SUBSTRUCTURE
     1 DHT         1

