### 
### Created by X-TOOL on Mon Sep 10 21:12:48 2018
### 

@<TRIPOS>MOLECULE
1i48_ligand
   23    24     1     0     0
SMALL
GAST_HUCK


@<TRIPOS>ATOM
      1 C1        -83.4090  -54.3930  165.8570 C.ar      1 CCO         0.0012
      2 C2        -84.5410  -54.0070  165.0780 C.ar      1 CCO        -0.0528
      3 C3        -85.5740  -53.2140  165.6500 C.ar      1 CCO        -0.0609
      4 C4        -85.4770  -52.8030  167.0110 C.ar      1 CCO        -0.0481
      5 C5        -84.3470  -53.1880  167.7900 C.ar      1 CCO         0.0408
      6 C6        -83.3190  -53.9790  167.2190 C.ar      1 CCO        -0.0390
      7 CL5       -84.2260  -52.6810  169.4610 Cl        1 CCO        -0.0708
      8 O1        -80.3220  -56.2630  164.9540 O.3       1 CCO        -0.1199
      9 C2A       -81.2180  -56.5370  163.9530 C.2       1 CCO         0.2828
     10 S3        -80.8410  -57.5900  162.5810 S.3       1 CCO        -0.0057
     11 N3        -82.4040  -55.9280  164.1260 N.2       1 CCO        -0.2635
     12 C1A       -82.3320  -55.2230  165.2600 C.2       1 CCO         0.1096
     13 N2        -81.1000  -55.4110  165.7650 N.2       1 CCO        -0.1203
     14 C1B       -79.6130  -58.6970  163.3630 C.3       1 CCO         0.0699
     15 C         -80.2070  -59.6180  164.4040 C.2       1 CCO         0.0479
     16 O2        -79.4080  -60.1100  165.2500 O.co2     1 CCO        -0.5679
     17 O3        -81.4470  -59.8670  164.3970 O.co2     1 CCO        -0.5679
     18 H1        -84.6140  -54.3205  164.0429 H         1 CCO         0.0623
     19 H2        -86.4312  -52.9236  165.0533 H         1 CCO         0.0617
     20 H3        -86.2610  -52.1988  167.4530 H         1 CCO         0.0621
     21 H4        -82.4635  -54.2697  167.8179 H         1 CCO         0.0628
     22 H5        -78.8431  -58.0771  163.8456 H         1 CCO         0.0579
     23 H6        -79.1494  -59.3123  162.5779 H         1 CCO         0.0579
@<TRIPOS>BOND
     1    1    2 ar 
     2    1    6 ar 
     3   12    1 1  
     4    2    3 ar 
     5    3    4 ar 
     6    5    4 ar 
     7    6    5 ar 
     8    5    7 1  
     9    9    8 1  
    10    8   13 1  
    11    9   10 1  
    12   11    9 2  
    13   10   14 1  
    14   11   12 1  
    15   12   13 2  
    16   14   15 1  
    17   15   16 ar 
    18   15   17 ar 
    19    2   18 1  
    20    3   19 1  
    21    4   20 1  
    22    6   21 1  
    23   14   22 1  
    24   14   23 1  
@<TRIPOS>SUBSTRUCTURE
     1 CCO         1

