### 
### Created by X-TOOL on Mon Sep 10 21:12:50 2018
### 

@<TRIPOS>MOLECULE
1i5r_ligand
  100   106     1     0     0
SMALL
GAST_HUCK


@<TRIPOS>ATOM
      1 C1          9.5910   11.4690  -11.3480 C.ar      1 HYC        -0.0749
      2 C2          8.8490   12.2670  -12.2430 C.ar      1 HYC        -0.0468
      3 C3          8.4840   11.7920  -13.5070 C.ar      1 HYC         0.0739
      4 O3          7.8080   12.5360  -14.3070 O.3       1 HYC        -0.3393
      5 C4          8.8560   10.4830  -13.9180 C.ar      1 HYC        -0.0385
      6 C5          9.6040    9.6400  -13.0510 C.ar      1 HYC        -0.0491
      7 C6          9.9900    8.2060  -13.5490 C.3       1 HYC        -0.0236
      8 C7         11.1000    7.5010  -12.6550 C.3       1 HYC        -0.0396
      9 C8         10.6400    7.7270  -11.1740 C.3       1 HYC        -0.0259
     10 C9         10.7920    9.2360  -10.7870 C.3       1 HYC        -0.0116
     11 C10         9.9750   10.1410  -11.7500 C.ar      1 HYC        -0.0484
     12 C11        10.3150    9.4500   -9.2890 C.3       1 HYC        -0.0421
     13 C12        11.0970    8.5550   -8.2760 C.3       1 HYC        -0.0433
     14 C13        11.0950    7.0540   -8.6680 C.3       1 HYC        -0.0025
     15 C14        11.4950    6.8710  -10.1750 C.3       1 HYC        -0.0283
     16 C15        11.4500    5.2540  -10.4250 C.3       1 HYC        -0.0440
     17 C16        12.4530    4.9260   -9.1210 C.3       1 HYC        -0.0142
     18 C17        12.1830    6.0680   -8.0340 C.3       1 HYC         0.0637
     19 O17        11.6130    5.6280   -6.8430 O.3       1 HYC        -0.3910
     20 C18         9.6360    6.4090   -8.4670 C.3       1 HYC        -0.0569
     21 C21        11.9990    3.6130   -8.5850 C.3       1 HYC        -0.0478
     22 C22        12.2890    2.6410   -9.6260 C.3       1 HYC        -0.0527
     23 C23        11.8820    1.1960   -9.2410 C.3       1 HYC        -0.0530
     24 C24        12.9940    0.6540   -8.4110 C.3       1 HYC        -0.0531
     25 C25        12.9160   -0.8050   -8.3630 C.3       1 HYC        -0.0529
     26 C26        14.0010   -1.3910   -7.5480 C.3       1 HYC        -0.0509
     27 C27        13.2470   -2.1970   -6.6170 C.3       1 HYC        -0.0348
     28 C28        14.2990   -2.8430   -5.7240 C.3       1 HYC         0.0487
     29 C31        16.2250   -6.2660   -1.9410 C.3       1 HYC         0.2010
     30 C32        16.8810   -6.2360   -3.2820 C.3       1 HYC         0.1385
     31 O32        17.5030   -7.3610   -3.6240 O.3       1 HYC        -0.3836
     32 C33        17.6560   -5.0180   -3.1390 C.3       1 HYC         0.1149
     33 O33        18.8010   -5.2660   -2.6840 O.3       1 HYC        -0.3864
     34 C34        16.8820   -4.1110   -2.2120 C.3       1 HYC         0.1182
     35 O34        15.6900   -4.9350   -1.9090 O.3       1 HYC        -0.3364
     36 C35        16.2480   -2.7840   -2.7520 C.3       1 HYC         0.1055
     37 O35        15.7120   -3.2520   -4.0410 O.3       1 HYC        -0.2742
     38 C36        14.6950   -2.2150   -4.4750 C.2       1 HYC         0.2338
     39 O36        14.2470   -1.2000   -4.0830 O.2       1 HYC        -0.3704
     40 N41        14.0330   -9.5360    1.2550 N.ar      1 HYC        -0.2698
     41 C42        15.0830   -8.7200    1.4210 C.ar      1 HYC         0.0533
     42 N43        15.5930   -7.8870    0.5150 N.ar      1 HYC        -0.2714
     43 C44        14.9600   -7.8600   -0.7570 C.ar      1 HYC         0.1613
     44 C45        13.7930   -8.7260   -1.0340 C.ar      1 HYC         0.1045
     45 C46        13.4030   -9.5610    0.1050 C.ar      1 HYC         0.1298
     46 N46        12.2890  -10.3840   -0.1710 N.pl3     1 HYC        -0.3152
     47 N47        13.3050   -8.5660   -2.3290 N.2       1 HYC        -0.2958
     48 C48        14.2030   -7.6110   -2.7680 C.2       1 HYC         0.1123
     49 N49        15.1900   -7.1520   -1.9150 N.pl3     1 HYC        -0.1919
     50 H1          9.8682   11.8499  -10.3717 H         1 HYC         0.0511
     51 H2          8.5559   13.2674  -11.9459 H         1 HYC         0.0468
     52 H3          7.6460   12.0643  -15.1156 H         1 HYC         0.2457
     53 H4          8.5673   10.1249  -14.8996 H         1 HYC         0.0462
     54 H5         10.3707    8.2856  -14.5779 H         1 HYC         0.0410
     55 H6          9.0861    7.5793  -13.5399 H         1 HYC         0.0410
     56 H7         12.0840    7.9614  -12.8277 H         1 HYC         0.0290
     57 H8         11.1531    6.4261  -12.8825 H         1 HYC         0.0290
     58 H9          9.5836    7.4339  -11.0843 H         1 HYC         0.0326
     59 H10        11.8536    9.5139  -10.8635 H         1 HYC         0.0429
     60 H11         9.2446    9.2055   -9.2218 H         1 HYC         0.0286
     61 H12        10.4679   10.5050   -9.0179 H         1 HYC         0.0286
     62 H13        10.6322    8.6591   -7.2845 H         1 HYC         0.0273
     63 H14        12.1391    8.9043   -8.2311 H         1 HYC         0.0273
     64 H15        12.5359    7.2050  -10.2977 H         1 HYC         0.0311
     65 H16        11.8784    4.9503  -11.3915 H         1 HYC         0.0272
     66 H17        10.4429    4.8244  -10.3191 H         1 HYC         0.0272
     67 H18        13.5131    4.8964   -9.4131 H         1 HYC         0.0326
     68 H19        13.1246    6.5947   -7.8198 H         1 HYC         0.0601
     69 H20        11.4890    6.3679   -6.2603 H         1 HYC         0.2098
     70 H21         8.8769    7.0776   -8.8990 H         1 HYC         0.0236
     71 H22         9.4387    6.2758   -7.3931 H         1 HYC         0.0236
     72 H23         9.5941    5.4324   -8.9714 H         1 HYC         0.0236
     73 H24        10.9198    3.6377   -8.3734 H         1 HYC         0.0269
     74 H25        12.5476    3.3642   -7.6646 H         1 HYC         0.0269
     75 H26        13.3700    2.6576   -9.8288 H         1 HYC         0.0265
     76 H27        11.7408    2.9282  -10.5354 H         1 HYC         0.0265
     77 H28        11.7490    0.5842  -10.1454 H         1 HYC         0.0265
     78 H29        10.9457    1.2053   -8.6637 H         1 HYC         0.0265
     79 H30        12.9167    1.0568   -7.3903 H         1 HYC         0.0265
     80 H31        13.9566    0.9531   -8.8513 H         1 HYC         0.0265
     81 H32        12.9894   -1.1985   -9.3876 H         1 HYC         0.0265
     82 H33        11.9485   -1.0948   -7.9273 H         1 HYC         0.0265
     83 H34        14.5814   -0.6133   -7.0300 H         1 HYC         0.0267
     84 H35        14.6769   -2.0070   -8.1593 H         1 HYC         0.0267
     85 H36        12.6665   -2.9644   -7.1500 H         1 HYC         0.0291
     86 H37        12.5666   -1.5692   -6.0230 H         1 HYC         0.0291
     87 H38        15.2113   -2.9390   -6.3311 H         1 HYC         0.0518
     88 H39        13.9223   -3.8441   -5.4673 H         1 HYC         0.0518
     89 H40        16.9352   -6.4686   -1.1258 H         1 HYC         0.0996
     90 H41        16.1178   -6.0735   -4.0574 H         1 HYC         0.0676
     91 H42        16.8768   -8.0752   -3.6407 H         1 HYC         0.2101
     92 H43        17.7642   -4.5331   -4.1204 H         1 HYC         0.0648
     93 H44        19.2568   -5.8508   -3.2781 H         1 HYC         0.2100
     94 H45        17.4921   -3.8878   -1.3244 H         1 HYC         0.0651
     95 H46        17.0049   -1.9975   -2.8878 H         1 HYC         0.0640
     96 H47        15.4508   -2.4153   -2.0899 H         1 HYC         0.0640
     97 H48        15.5665   -8.7397    2.3910 H         1 HYC         0.0996
     98 H49        11.8423  -10.3520   -1.0985 H         1 HYC         0.1820
     99 H50        11.9232  -11.0162    0.5553 H         1 HYC         0.1820
    100 H51        14.1334   -7.2213   -3.7825 H         1 HYC         0.1349
@<TRIPOS>BOND
     1    1    2 ar 
     2   11    1 ar 
     3    2    3 ar 
     4    3    4 1  
     5    5    3 ar 
     6    6    5 ar 
     7    7    6 1  
     8   11    6 ar 
     9    8    7 1  
    10    9    8 1  
    11    9   10 1  
    12   15    9 1  
    13   10   11 1  
    14   12   10 1  
    15   13   12 1  
    16   14   13 1  
    17   14   15 1  
    18   18   14 1  
    19   14   20 1  
    20   16   15 1  
    21   17   16 1  
    22   17   18 1  
    23   21   17 1  
    24   18   19 1  
    25   22   21 1  
    26   23   22 1  
    27   24   23 1  
    28   25   24 1  
    29   26   25 1  
    30   27   26 1  
    31   28   27 1  
    32   38   28 1  
    33   29   30 1  
    34   29   35 1  
    35   30   31 1  
    36   30   32 1  
    37   32   33 1  
    38   34   32 1  
    39   35   34 1  
    40   34   36 1  
    41   36   37 1  
    42   37   38 1  
    43   38   39 2  
    44   41   40 ar 
    45   45   40 ar 
    46   42   41 ar 
    47   43   42 ar 
    48   43   44 ar 
    49   49   43 1  
    50   44   45 ar 
    51   47   44 1  
    52   45   46 1  
    53   48   47 2  
    54   49   48 1  
    55   29   49 1  
    56    1   50 1  
    57    2   51 1  
    58    4   52 1  
    59    5   53 1  
    60    7   54 1  
    61    7   55 1  
    62    8   56 1  
    63    8   57 1  
    64    9   58 1  
    65   10   59 1  
    66   12   60 1  
    67   12   61 1  
    68   13   62 1  
    69   13   63 1  
    70   15   64 1  
    71   16   65 1  
    72   16   66 1  
    73   17   67 1  
    74   18   68 1  
    75   19   69 1  
    76   20   70 1  
    77   20   71 1  
    78   20   72 1  
    79   21   73 1  
    80   21   74 1  
    81   22   75 1  
    82   22   76 1  
    83   23   77 1  
    84   23   78 1  
    85   24   79 1  
    86   24   80 1  
    87   25   81 1  
    88   25   82 1  
    89   26   83 1  
    90   26   84 1  
    91   27   85 1  
    92   27   86 1  
    93   28   87 1  
    94   28   88 1  
    95   29   89 1  
    96   30   90 1  
    97   31   91 1  
    98   32   92 1  
    99   33   93 1  
   100   34   94 1  
   101   36   95 1  
   102   36   96 1  
   103   41   97 1  
   104   46   98 1  
   105   46   99 1  
   106   48  100 1  
@<TRIPOS>SUBSTRUCTURE
     1 HYC         1

