### 
### Created by X-TOOL on Mon Sep 10 21:12:48 2018
### 

@<TRIPOS>MOLECULE
1i6v_ligand
  120   124     1     0     0
SMALL
GAST_HUCK


@<TRIPOS>ATOM
      1 C1         48.5350   97.5710   24.9090 C.ar      1 RFP         0.1062
      2 C2         48.3850   96.5760   25.9310 C.ar      1 RFP         0.0939
      3 C3         49.4570   95.7320   26.3150 C.ar      1 RFP         0.0328
      4 C4         50.7400   95.9630   25.7890 C.ar      1 RFP         0.0879
      5 C5         52.2550   97.1830   24.0890 C.ar      1 RFP         0.0461
      6 C6         52.3290   98.1840   23.0660 C.ar      1 RFP         0.1025
      7 C7         51.3240   99.0130   22.6340 C.ar      1 RFP         0.0197
      8 C8         50.0100   98.8220   23.2510 C.ar      1 RFP         0.0997
      9 C9         49.8370   97.7690   24.3230 C.ar      1 RFP         0.0297
     10 C10        50.9530   96.9310   24.7700 C.ar      1 RFP         0.0024
     11 C11        53.5140   96.5520   24.1290 C.2       1 RFP         0.1822
     12 C12        54.3960   97.1900   23.1050 C.3       1 RFP         0.2590
     13 C13        55.6610   97.7780   23.6650 C.3       1 RFP        -0.0005
     14 C14        51.4930  100.0520   21.5610 C.3       1 RFP        -0.0346
     15 C15        46.1860   97.1360   26.9700 C.2       1 RFP         0.2109
     16 C16        44.9500   96.4320   27.4620 C.2       1 RFP         0.0168
     17 C17        44.2900   95.4300   26.7750 C.2       1 RFP        -0.0679
     18 C18        44.5910   94.8230   25.4530 C.3       1 RFP        -0.0252
     19 C19        43.9750   93.7080   25.0000 C.3       1 RFP        -0.0383
     20 C20        44.6080   92.4180   24.4920 C.3       1 RFP        -0.0154
     21 C21        45.5840   92.6570   23.3310 C.3       1 RFP         0.0629
     22 C22        46.5630   91.5170   22.9750 C.3       1 RFP         0.0088
     23 C23        47.6020   91.8680   21.9000 C.3       1 RFP         0.0654
     24 C24        49.0440   92.2220   22.3380 C.3       1 RFP         0.0137
     25 C25        49.8020   92.8550   21.1450 C.3       1 RFP         0.0986
     26 C26        50.8070   93.9880   21.5070 C.3       1 RFP         0.0179
     27 C27        51.7880   94.2900   20.3470 C.3       1 RFP         0.0761
     28 C28        52.9080   95.3130   20.6580 C.2       1 RFP        -0.0510
     29 C29        53.8110   95.1490   21.6370 C.2       1 RFP         0.0372
     30 C30        44.5020   96.9280   28.8180 C.3       1 RFP        -0.0331
     31 C31        45.2760   91.7660   25.7270 C.3       1 RFP        -0.0599
     32 C32        45.8240   90.2230   22.5320 C.3       1 RFP        -0.0577
     33 C33        49.8170   91.0080   22.8920 C.3       1 RFP        -0.0573
     34 C34        49.9950   95.1930   21.8990 C.3       1 RFP        -0.0561
     35 C35        49.8960   91.2800   19.3140 C.2       1 RFP         0.2309
     36 C36        50.7110   90.2400   18.6950 C.3       1 RFP         0.0372
     37 C37        51.5090   94.2020   17.9340 C.3       1 RFP         0.0387
     38 C38        46.4370   89.9910   30.7930 C.3       1 RFP        -0.0429
     39 C39        48.3610   91.1980   29.8110 C.3       1 RFP        -0.0106
     40 C40        48.9090   92.5760   29.4650 C.3       1 RFP         0.0792
     41 C41        46.6690   93.5100   29.3310 C.3       1 RFP         0.0792
     42 C42        46.0630   92.1580   29.6540 C.3       1 RFP        -0.0106
     43 C43        49.2890   94.5610   27.1830 C.2       1 RFP         0.0158
     44 N1         47.0960   96.2860   26.4730 N.am      1 RFP        -0.2438
     45 N2         48.2940   94.4940   28.0160 N.2       1 RFP        -0.2308
     46 N3         47.9480   93.2900   28.6360 N.pl3     1 RFP        -0.2498
     47 N4         47.0030   91.3270   30.4890 N.4       1 RFP         0.2360
     48 O1         47.4710   98.2660   24.4880 O.3       1 RFP        -0.3465
     49 O2         49.0060   99.5380   22.8930 O.3       1 RFP        -0.3316
     50 O3         53.5730   98.2380   22.5010 O.3       1 RFP        -0.2861
     51 O4         53.9740   95.5980   24.8210 O.2       1 RFP        -0.3567
     52 O5         54.7730   96.1920   22.0560 O.3       1 RFP        -0.3068
     53 O6         50.9860   94.7380   19.1860 O.3       1 RFP        -0.3732
     54 O7         50.4690   91.7950   20.4280 O.3       1 RFP        -0.2729
     55 O8         48.8560   91.6640   18.9130 O.2       1 RFP        -0.3707
     56 O9         47.1610   92.9800   21.0830 O.3       1 RFP        -0.3911
     57 O10        44.7560   92.9820   22.2120 O.3       1 RFP        -0.3912
     58 O11        46.2900   98.3430   27.0470 O.2       1 RFP        -0.3865
     59 O12        51.7320   95.1630   26.3180 O.3       1 RFP        -0.3381
     60 H1         56.2496   98.2249   22.8503 H         1 RFP         0.0260
     61 H2         56.2498   96.9860   24.1509 H         1 RFP         0.0260
     62 H3         55.4094   98.5534   24.4036 H         1 RFP         0.0260
     63 H4         52.5373  100.0558   21.2156 H         1 RFP         0.0341
     64 H5         51.2371  101.0422   21.9659 H         1 RFP         0.0341
     65 H6         50.8283   99.8183   20.7163 H         1 RFP         0.0341
     66 H7         43.4153   95.0234   27.2806 H         1 RFP         0.0636
     67 H8         45.6667   94.5931   25.4623 H         1 RFP         0.0436
     68 H9         44.3897   95.6056   24.7066 H         1 RFP         0.0436
     69 H10        43.3501   94.0571   24.1648 H         1 RFP         0.0294
     70 H11        43.3302   93.3905   25.8327 H         1 RFP         0.0294
     71 H12        43.8143   91.7511   24.1243 H         1 RFP         0.0325
     72 H13        46.2003   93.5312   23.5876 H         1 RFP         0.0599
     73 H14        47.1167   91.2857   23.8969 H         1 RFP         0.0348
     74 H15        47.6763   90.9775   21.2585 H         1 RFP         0.0600
     75 H16        48.9786   92.9700   23.1419 H         1 RFP         0.0352
     76 H17        49.0483   93.3007   20.4793 H         1 RFP         0.0658
     77 H18        51.4030   93.6677   22.3743 H         1 RFP         0.0368
     78 H19        52.2848   93.3448   20.0829 H         1 RFP         0.0691
     79 H20        52.9660   96.2142   20.0494 H         1 RFP         0.0359
     80 H21        53.8373   94.1909   22.1540 H         1 RFP         0.0848
     81 H22        45.1807   97.7232   29.1601 H         1 RFP         0.0348
     82 H23        44.5202   96.0959   29.5372 H         1 RFP         0.0348
     83 H24        43.4792   97.3259   28.7434 H         1 RFP         0.0348
     84 H25        44.5247   91.6234   26.5177 H         1 RFP         0.0233
     85 H26        46.0788   92.4202   26.0978 H         1 RFP         0.0233
     86 H27        45.6990   90.7911   25.4431 H         1 RFP         0.0233
     87 H28        45.0732   89.9522   23.2889 H         1 RFP         0.0234
     88 H29        46.5504   89.4037   22.4266 H         1 RFP         0.0234
     89 H30        45.3254   90.3975   21.5671 H         1 RFP         0.0234
     90 H31        49.2620   90.5745   23.7370 H         1 RFP         0.0234
     91 H32        50.8113   91.3313   23.2337 H         1 RFP         0.0234
     92 H33        49.9290   90.2523   22.1006 H         1 RFP         0.0234
     93 H34        49.3172   94.9260   22.7232 H         1 RFP         0.0235
     94 H35        49.4054   95.5346   21.0355 H         1 RFP         0.0235
     95 H36        50.6688   95.9990   22.2249 H         1 RFP         0.0235
     96 H37        50.2000   89.8587   17.7986 H         1 RFP         0.0483
     97 H38        50.8604   89.4172   19.4097 H         1 RFP         0.0483
     98 H39        51.6869   90.6599   18.4100 H         1 RFP         0.0483
     99 H40        50.8894   94.5554   17.0966 H         1 RFP         0.0525
    100 H41        51.4869   93.1028   17.9681 H         1 RFP         0.0525
    101 H42        52.5450   94.5438   17.7932 H         1 RFP         0.0525
    102 H43        47.1529   89.4195   31.4020 H         1 RFP         0.0778
    103 H44        46.2429   89.4526   29.8536 H         1 RFP         0.0778
    104 H45        45.4953   90.1096   31.3490 H         1 RFP         0.0778
    105 H46        49.0599   90.6893   30.4913 H         1 RFP         0.0835
    106 H47        48.2521   90.6082   28.8889 H         1 RFP         0.0835
    107 H48        49.8557   92.4662   28.9158 H         1 RFP         0.0583
    108 H49        49.0858   93.1427   30.3910 H         1 RFP         0.0583
    109 H50        46.8429   94.0712   30.2609 H         1 RFP         0.0583
    110 H51        45.9862   94.0781   28.6821 H         1 RFP         0.0583
    111 H52        45.8510   91.6258   28.7149 H         1 RFP         0.0835
    112 H53        45.1259   92.3080   30.2101 H         1 RFP         0.0835
    113 H54        50.0040   93.7414   27.1287 H         1 RFP         0.0733
    114 H55        46.8376   95.3200   26.4832 H         1 RFP         0.2210
    115 H56        47.1394   91.8074   31.3646 H         1 RFP         0.2032
    116 H57        46.7056   98.0036   24.9858 H         1 RFP         0.2411
    117 H58        48.3202   98.9737   22.5558 H         1 RFP         0.2505
    118 H59        46.2744   92.8185   20.7822 H         1 RFP         0.2098
    119 H60        45.3017   93.2613   21.4863 H         1 RFP         0.2098
    120 H61        52.1139   94.6350   25.6266 H         1 RFP         0.2478
@<TRIPOS>BOND
     1    2    1 ar 
     2    1    9 ar 
     3    1   48 1  
     4    3    2 ar 
     5    2   44 1  
     6    3    4 ar 
     7   43    3 1  
     8    4   10 ar 
     9    4   59 1  
    10    5    6 ar 
    11   10    5 ar 
    12    5   11 1  
    13    6    7 ar 
    14    6   50 1  
    15    8    7 ar 
    16    7   14 1  
    17    9    8 ar 
    18    8   49 1  
    19   10    9 ar 
    20   11   12 1  
    21   11   51 2  
    22   12   13 1  
    23   12   50 1  
    24   12   52 1  
    25   15   16 1  
    26   44   15 am 
    27   15   58 2  
    28   16   17 2  
    29   16   30 1  
    30   17   18 1  
    31   18   19 1  
    32   19   20 1  
    33   20   21 1  
    34   20   31 1  
    35   21   22 1  
    36   21   57 1  
    37   22   23 1  
    38   22   32 1  
    39   23   24 1  
    40   23   56 1  
    41   25   24 1  
    42   24   33 1  
    43   26   25 1  
    44   25   54 1  
    45   27   26 1  
    46   26   34 1  
    47   28   27 1  
    48   27   53 1  
    49   29   28 2  
    50   52   29 1  
    51   35   36 1  
    52   54   35 1  
    53   35   55 2  
    54   53   37 1  
    55   47   38 1  
    56   40   39 1  
    57   39   47 1  
    58   46   40 1  
    59   41   42 1  
    60   46   41 1  
    61   42   47 1  
    62   45   43 2  
    63   45   46 1  
    64   13   60 1  
    65   13   61 1  
    66   13   62 1  
    67   14   63 1  
    68   14   64 1  
    69   14   65 1  
    70   17   66 1  
    71   18   67 1  
    72   18   68 1  
    73   19   69 1  
    74   19   70 1  
    75   20   71 1  
    76   21   72 1  
    77   22   73 1  
    78   23   74 1  
    79   24   75 1  
    80   25   76 1  
    81   26   77 1  
    82   27   78 1  
    83   28   79 1  
    84   29   80 1  
    85   30   81 1  
    86   30   82 1  
    87   30   83 1  
    88   31   84 1  
    89   31   85 1  
    90   31   86 1  
    91   32   87 1  
    92   32   88 1  
    93   32   89 1  
    94   33   90 1  
    95   33   91 1  
    96   33   92 1  
    97   34   93 1  
    98   34   94 1  
    99   34   95 1  
   100   36   96 1  
   101   36   97 1  
   102   36   98 1  
   103   37   99 1  
   104   37  100 1  
   105   37  101 1  
   106   38  102 1  
   107   38  103 1  
   108   38  104 1  
   109   39  105 1  
   110   39  106 1  
   111   40  107 1  
   112   40  108 1  
   113   41  109 1  
   114   41  110 1  
   115   42  111 1  
   116   42  112 1  
   117   43  113 1  
   118   44  114 1  
   119   47  115 1  
   120   48  116 1  
   121   49  117 1  
   122   56  118 1  
   123   57  119 1  
   124   59  120 1  
@<TRIPOS>SUBSTRUCTURE
     1 RFP         1

