### 
### Created by X-TOOL on Mon Sep 10 21:12:49 2018
### 

@<TRIPOS>MOLECULE
1i7g_ligand
   51    52     1     0     0
SMALL
GAST_HUCK


@<TRIPOS>ATOM
      1 C1         38.5740   31.9690   36.6470 C.ar      1 AZ2        -0.0496
      2 C2         39.5130   30.7880   36.6050 C.3       1 AZ2         0.0141
      3 C5         40.3300   30.6260   37.9090 C.3       1 AZ2         0.1186
      4 O7         41.2860   31.7030   37.9490 O.3       1 AZ2        -0.3610
      5 C8         41.6910   32.1050   39.2530 C.3       1 AZ2         0.0476
      6 C11        42.2940   33.4880   39.1140 C.3       1 AZ2        -0.0414
      7 C15        40.9620   29.2420   37.9120 C.2       1 AZ2         0.0654
      8 O16        40.0910   28.2780   38.2830 O.co2     1 AZ2        -0.5662
      9 O18        42.1140   28.9560   37.6270 O.co2     1 AZ2        -0.5662
     10 C19        39.0760   33.2960   36.4380 C.ar      1 AZ2        -0.0686
     11 C21        38.2100   34.4030   36.4970 C.ar      1 AZ2        -0.0396
     12 C23        36.8300   34.2240   36.7650 C.ar      1 AZ2         0.0842
     13 C24        36.3250   32.8990   36.9670 C.ar      1 AZ2        -0.0396
     14 C26        37.1850   31.7900   36.9090 C.ar      1 AZ2        -0.0686
     15 O28        36.1240   35.3940   36.7930 O.3       1 AZ2        -0.3206
     16 C29        34.8720   35.4130   37.4750 C.3       1 AZ2         0.0769
     17 C32        34.5440   36.8830   37.7090 C.3       1 AZ2         0.0035
     18 C35        34.8830   37.3340   39.0980 C.ar      1 AZ2        -0.0512
     19 C36        35.7260   38.4610   39.3000 C.ar      1 AZ2        -0.0686
     20 C38        36.0290   38.8900   40.6080 C.ar      1 AZ2        -0.0371
     21 C40        35.4930   38.1950   41.7340 C.ar      1 AZ2         0.1159
     22 C41        34.6630   37.0770   41.5380 C.ar      1 AZ2        -0.0371
     23 C43        34.3560   36.6440   40.2300 C.ar      1 AZ2        -0.0686
     24 O45        35.8350   38.7070   42.9490 O.3       1 AZ2        -0.1750
     25 S46        34.8030   39.7180   43.7040 S.o2      1 AZ2         0.0963
     26 C47        35.7830   39.9980   45.1580 C.3       1 AZ2         0.0855
     27 O51        34.7270   40.9530   42.9560 O.2       1 AZ2        -0.1437
     28 O52        33.6190   38.9790   44.0960 O.2       1 AZ2        -0.1437
     29 H1         40.2121   30.9243   35.7668 H         1 AZ2         0.0448
     30 H2         38.9219   29.8743   36.4447 H         1 AZ2         0.0448
     31 H3         39.6647   30.7095   38.7810 H         1 AZ2         0.0787
     32 H4         42.4390   31.4035   39.6509 H         1 AZ2         0.0559
     33 H5         40.8224   32.1361   39.9271 H         1 AZ2         0.0559
     34 H6         42.6243   33.8448   40.1007 H         1 AZ2         0.0252
     35 H7         41.5394   34.1780   38.7084 H         1 AZ2         0.0252
     36 H8         43.1561   33.4453   38.4321 H         1 AZ2         0.0252
     37 H9         40.1297   33.4470   36.2332 H         1 AZ2         0.0530
     38 H10        38.6014   35.4010   36.3362 H         1 AZ2         0.0525
     39 H11        35.2698   32.7508   37.1664 H         1 AZ2         0.0525
     40 H12        36.7898   30.7926   37.0644 H         1 AZ2         0.0530
     41 H13        34.9514   34.8816   38.4348 H         1 AZ2         0.0631
     42 H14        34.0933   34.9411   36.8579 H         1 AZ2         0.0631
     43 H15        33.4674   37.0350   37.5419 H         1 AZ2         0.0431
     44 H16        35.1157   37.4903   36.9918 H         1 AZ2         0.0431
     45 H17        36.1359   38.9906   38.4476 H         1 AZ2         0.0530
     46 H18        36.6710   39.7502   40.7594 H         1 AZ2         0.0526
     47 H19        34.2583   36.5469   42.3926 H         1 AZ2         0.0526
     48 H20        33.7156   35.7815   40.0847 H         1 AZ2         0.0530
     49 H21        35.2497   40.6833   45.8332 H         1 AZ2         0.0493
     50 H22        36.7469   40.4431   44.8704 H         1 AZ2         0.0493
     51 H23        35.9594   39.0412   45.6712 H         1 AZ2         0.0493
@<TRIPOS>BOND
     1    1   14 ar 
     2    1   10 ar 
     3    1    2 1  
     4    2    3 1  
     5    3    7 1  
     6    3    4 1  
     7    4    5 1  
     8    5    6 1  
     9    7    9 ar 
    10    7    8 ar 
    11   10   11 ar 
    12   11   12 ar 
    13   12   15 1  
    14   12   13 ar 
    15   13   14 ar 
    16   15   16 1  
    17   16   17 1  
    18   17   18 1  
    19   18   23 ar 
    20   18   19 ar 
    21   19   20 ar 
    22   20   21 ar 
    23   21   24 1  
    24   21   22 ar 
    25   22   23 ar 
    26   24   25 1  
    27   25   28 2  
    28   25   27 2  
    29   25   26 1  
    30    2   29 1  
    31    2   30 1  
    32    3   31 1  
    33    5   32 1  
    34    5   33 1  
    35    6   34 1  
    36    6   35 1  
    37    6   36 1  
    38   10   37 1  
    39   11   38 1  
    40   13   39 1  
    41   14   40 1  
    42   16   41 1  
    43   16   42 1  
    44   17   43 1  
    45   17   44 1  
    46   19   45 1  
    47   20   46 1  
    48   22   47 1  
    49   23   48 1  
    50   26   49 1  
    51   26   50 1  
    52   26   51 1  
@<TRIPOS>SUBSTRUCTURE
     1 AZ2         1

