### 
### Created by X-TOOL on Mon Sep 10 21:12:49 2018
### 

@<TRIPOS>MOLECULE
1i7i_ligand
   51    52     1     0     0
SMALL
GAST_HUCK


@<TRIPOS>ATOM
      1 C1         18.3960   16.3430   16.4840 C.ar      1 AZ2        -0.0496
      2 C2         18.8060   16.4240   17.9370 C.3       1 AZ2         0.0141
      3 C5         19.2630   17.8180   18.4260 C.3       1 AZ2         0.1186
      4 O7         20.4490   18.1410   17.6930 O.3       1 AZ2        -0.3610
      5 C8         20.6920   19.5210   17.5290 C.3       1 AZ2         0.0476
      6 C11        22.0860   19.6460   16.9440 C.3       1 AZ2        -0.0414
      7 C15        19.4700   17.7540   19.9600 C.2       1 AZ2         0.0654
      8 O16        18.3230   17.9030   20.6580 O.co2     1 AZ2        -0.5662
      9 O18        20.5210   17.5850   20.5410 O.co2     1 AZ2        -0.5662
     10 C19        19.3450   16.0130   15.4660 C.ar      1 AZ2        -0.0686
     11 C21        18.9390   15.9390   14.1020 C.ar      1 AZ2        -0.0396
     12 C23        17.5740   16.1940   13.7360 C.ar      1 AZ2         0.0842
     13 C24        16.6480   16.5200   14.7520 C.ar      1 AZ2        -0.0396
     14 C26        17.0570   16.5930   16.1130 C.ar      1 AZ2        -0.0686
     15 O28        17.2390   16.1010   12.3820 O.3       1 AZ2        -0.3206
     16 C29        18.2370   15.8860   11.3530 C.3       1 AZ2         0.0769
     17 C32        17.6420   16.3750   10.0300 C.3       1 AZ2         0.0035
     18 C35        17.6740   17.8740    9.9160 C.ar      1 AZ2        -0.0512
     19 C36        18.7320   18.5310    9.2180 C.ar      1 AZ2        -0.0686
     20 C38        18.7580   19.9510    9.1180 C.ar      1 AZ2        -0.0371
     21 C40        17.7250   20.7240    9.7160 C.ar      1 AZ2         0.1159
     22 C41        16.6680   20.0780   10.4080 C.ar      1 AZ2        -0.0371
     23 C43        16.6510   18.6630   10.5030 C.ar      1 AZ2        -0.0686
     24 O45        17.8440   22.0760    9.5550 O.3       1 AZ2        -0.1750
     25 S46        17.2560   22.7890    8.2240 S.o2      1 AZ2         0.0963
     26 C47        17.5950   24.4670    8.7020 C.3       1 AZ2         0.0855
     27 O51        18.1020   22.4590    7.1090 O.2       1 AZ2        -0.1437
     28 O52        15.8090   22.5980    8.1760 O.2       1 AZ2        -0.1437
     29 H1         19.6376   15.7212   18.0936 H         1 AZ2         0.0448
     30 H2         17.9454   16.1161   18.5491 H         1 AZ2         0.0448
     31 H3         18.4900   18.5690   18.2059 H         1 AZ2         0.0787
     32 H4         20.6402   20.0342   18.5006 H         1 AZ2         0.0559
     33 H5         19.9515   19.9585   16.8433 H         1 AZ2         0.0559
     34 H6         22.3272   20.7089   16.7952 H         1 AZ2         0.0252
     35 H7         22.1265   19.1221   15.9776 H         1 AZ2         0.0252
     36 H8         22.8152   19.1978   17.6349 H         1 AZ2         0.0252
     37 H9         20.3774   15.8184   15.7332 H         1 AZ2         0.0530
     38 H10        19.6646   15.6888   13.3365 H         1 AZ2         0.0525
     39 H11        15.6142   16.7167   14.4918 H         1 AZ2         0.0525
     40 H12        16.3295   16.8443   16.8763 H         1 AZ2         0.0530
     41 H13        18.4805   14.8156   11.2830 H         1 AZ2         0.0631
     42 H14        19.1486   16.4548   11.5884 H         1 AZ2         0.0631
     43 H15        16.5975   16.0364    9.9640 H         1 AZ2         0.0431
     44 H16        18.2205   15.9436    9.1998 H         1 AZ2         0.0431
     45 H17        19.5210   17.9447    8.7610 H         1 AZ2         0.0530
     46 H18        19.5647   20.4426    8.5864 H         1 AZ2         0.0526
     47 H19        15.8768   20.6635   10.8621 H         1 AZ2         0.0526
     48 H20        15.8415   18.1752   11.0339 H         1 AZ2         0.0530
     49 H21        17.2606   25.1494    7.9067 H         1 AZ2         0.0493
     50 H22        18.6762   24.5916    8.8614 H         1 AZ2         0.0493
     51 H23        17.0579   24.6985    9.6336 H         1 AZ2         0.0493
@<TRIPOS>BOND
     1    1   14 ar 
     2    1   10 ar 
     3    1    2 1  
     4    2    3 1  
     5    3    7 1  
     6    3    4 1  
     7    4    5 1  
     8    5    6 1  
     9    7    9 ar 
    10    7    8 ar 
    11   10   11 ar 
    12   11   12 ar 
    13   12   15 1  
    14   12   13 ar 
    15   13   14 ar 
    16   15   16 1  
    17   16   17 1  
    18   17   18 1  
    19   18   23 ar 
    20   18   19 ar 
    21   19   20 ar 
    22   20   21 ar 
    23   21   24 1  
    24   21   22 ar 
    25   22   23 ar 
    26   24   25 1  
    27   25   28 2  
    28   25   27 2  
    29   25   26 1  
    30    2   29 1  
    31    2   30 1  
    32    3   31 1  
    33    5   32 1  
    34    5   33 1  
    35    6   34 1  
    36    6   35 1  
    37    6   36 1  
    38   10   37 1  
    39   11   38 1  
    40   13   39 1  
    41   14   40 1  
    42   16   41 1  
    43   16   42 1  
    44   17   43 1  
    45   17   44 1  
    46   19   45 1  
    47   20   46 1  
    48   22   47 1  
    49   23   48 1  
    50   26   49 1  
    51   26   50 1  
    52   26   51 1  
@<TRIPOS>SUBSTRUCTURE
     1 AZ2         1

