### 
### Created by X-TOOL on Mon Sep 10 21:12:48 2018
### 

@<TRIPOS>MOLECULE
1i7z_ligand
   44    46     1     0     0
SMALL
GAST_HUCK


@<TRIPOS>ATOM
      1 C1         40.3620    4.8820   50.1180 C.3       1 COC         0.0658
      2 O5         39.6820    4.2280   49.0120 O.3       1 COC        -0.2797
      3 C6         40.1310    4.4390   47.7590 C.2       1 COC         0.2449
      4 O7         41.2660    4.7520   47.4970 O.2       1 COC        -0.3698
      5 C8         38.9430    4.2070   46.8010 C.3       1 COC         0.1329
      6 C10        39.4460    3.4330   45.5100 C.3       1 COC         0.0033
      7 N12        40.5100    4.2460   44.8810 N.4       1 COC         0.2395
      8 C14        41.3640    3.4710   43.9470 C.3       1 COC        -0.0424
      9 C18        38.3560    3.2370   44.4180 C.3       1 COC        -0.0019
     10 C21        38.5320    4.4870   43.5100 C.3       1 COC        -0.0043
     11 C24        39.6850    5.2640   44.1930 C.3       1 COC        -0.0176
     12 C26        39.1480    6.2560   45.2890 C.3       1 COC         0.0237
     13 C29        38.2790    5.5110   46.3060 C.3       1 COC         0.1176
     14 O1         37.9450    6.3730   47.4520 O.3       1 COC        -0.2709
     15 C2         36.9150    6.0730   48.2820 C.2       1 COC         0.2636
     16 O3         36.0530    5.2800   48.0160 O.2       1 COC        -0.3568
     17 C4         36.9850    6.8630   49.5910 C.ar      1 COC         0.0620
     18 C5         36.0250    6.5910   50.6020 C.ar      1 COC        -0.0406
     19 C7         36.0760    7.3130   51.8230 C.ar      1 COC        -0.0559
     20 C9         37.0400    8.2650   52.0360 C.ar      1 COC        -0.0573
     21 C11        37.9830    8.5380   51.0520 C.ar      1 COC        -0.0559
     22 C13        37.9560    7.8350   49.8230 C.ar      1 COC        -0.0406
     23 H1         39.8731    4.6057   51.0639 H         1 COC         0.0577
     24 H2         40.3131    5.9728   49.9850 H         1 COC         0.0577
     25 H3         41.4142    4.5623   50.1421 H         1 COC         0.0577
     26 H4         38.1893    3.6018   47.3260 H         1 COC         0.0640
     27 H5         39.8375    2.4507   45.8129 H         1 COC         0.0882
     28 H6         41.1012    4.6695   45.5789 H         1 COC         0.2038
     29 H7         42.1305    4.1323   43.5166 H         1 COC         0.0778
     30 H8         40.7422    3.0565   43.1398 H         1 COC         0.0778
     31 H9         41.8524    2.6499   44.4922 H         1 COC         0.0778
     32 H10        37.3509    3.2123   44.8642 H         1 COC         0.0323
     33 H11        38.5283    2.3104   43.8508 H         1 COC         0.0323
     34 H12        38.8064    4.1945   42.4857 H         1 COC         0.0322
     35 H13        37.6116    5.0888   43.4853 H         1 COC         0.0322
     36 H14        40.2734    5.8129   43.4430 H         1 COC         0.0852
     37 H15        38.5472    7.0399   44.8048 H         1 COC         0.0350
     38 H16        40.0006    6.7164   45.8097 H         1 COC         0.0350
     39 H17        37.3401    5.2383   45.8020 H         1 COC         0.0681
     40 H18        35.2606    5.8391   50.4425 H         1 COC         0.0672
     41 H19        35.3442    7.1095   52.5964 H         1 COC         0.0630
     42 H20        37.0666    8.8063   52.9748 H         1 COC         0.0654
     43 H21        38.7421    9.2920   51.2261 H         1 COC         0.0630
     44 H22        38.6938    8.0540   49.0596 H         1 COC         0.0672
@<TRIPOS>BOND
     1    1    2 1  
     2    2    3 1  
     3    3    5 1  
     4    3    4 2  
     5    5   13 1  
     6    5    6 1  
     7    6    9 1  
     8    6    7 1  
     9    7   11 1  
    10    7    8 1  
    11   11   12 1  
    12   11   10 1  
    13   10    9 1  
    14   12   13 1  
    15   13   14 1  
    16   14   15 1  
    17   15   17 1  
    18   15   16 2  
    19   17   22 ar 
    20   17   18 ar 
    21   18   19 ar 
    22   19   20 ar 
    23   20   21 ar 
    24   21   22 ar 
    25    1   23 1  
    26    1   24 1  
    27    1   25 1  
    28    5   26 1  
    29    6   27 1  
    30    7   28 1  
    31    8   29 1  
    32    8   30 1  
    33    8   31 1  
    34    9   32 1  
    35    9   33 1  
    36   10   34 1  
    37   10   35 1  
    38   11   36 1  
    39   12   37 1  
    40   12   38 1  
    41   13   39 1  
    42   18   40 1  
    43   19   41 1  
    44   20   42 1  
    45   21   43 1  
    46   22   44 1  
@<TRIPOS>SUBSTRUCTURE
     1 COC         1

