### 
### Created by X-TOOL on Fri Sep 26 17:34:18 2014
### 

@<TRIPOS>MOLECULE
1i80_ligand
   15    16     1     0     0
SMALL
GAST_HUCK


@<TRIPOS>ATOM
      1 C9         29.3560   32.7100    8.4770 C.2       1 MOL        -0.0619
      2 C8         30.3390   33.3220    9.2350 C.2       1 MOL         0.0201
      3 N7         29.8090   34.3230    9.9860 N.pl3     1 MOL        -0.2820
      4 C5         28.4620   34.3570    9.7090 C.2       1 MOL         0.1379
      5 C6         27.4140   35.1910   10.1920 C.2       1 MOL         0.2424
      6 O6         27.4520   36.1240   11.0190 O.2       1 MOL        -0.4012
      7 N1         26.1780   34.8430    9.6060 N.am      1 MOL        -0.2060
      8 C2         25.9590   33.8380    8.6750 C.2       1 MOL         0.1158
      9 N3         26.9530   33.0640    8.2320 N.2       1 MOL        -0.3190
     10 C4         28.1720   33.3720    8.7790 C.2       1 MOL         0.0081
     11 H1         29.4842   31.8790    7.7849 H         1 MOL         0.0291
     12 H2         31.3910   33.0405    9.2303 H         1 MOL         0.0892
     13 H3         30.3179   34.9378   10.6372 H         1 MOL         0.2317
     14 H4         25.3800   35.3742    9.8905 H         1 MOL         0.2524
     15 H5         24.9510   33.6762    8.2959 H         1 MOL         0.1436
@<TRIPOS>BOND
     1   10    1 1  
     2    1    2 2  
     3    2    3 1  
     4    3    4 1  
     5    4   10 2  
     6    4    5 1  
     7    5    7 am 
     8    5    6 2  
     9    7    8 am 
    10    8    9 2  
    11    9   10 1  
    12    1   11 1  
    13    2   12 1  
    14    3   13 1  
    15    7   14 1  
    16    8   15 1  
@<TRIPOS>SUBSTRUCTURE
     1 MOL         1

