### 
### Created by X-TOOL on Mon Sep 10 21:12:48 2018
### 

@<TRIPOS>MOLECULE
1i8j_ligand
   30    29     1     0     0
SMALL
GAST_HUCK


@<TRIPOS>ATOM
      1 C1         21.0900   91.0970   49.0530 C.2       1 DSB         0.0348
      2 O2         22.1830   90.9440   48.4620 O.co2     1 DSB        -0.5690
      3 C2         20.8720   90.2110   50.2440 C.3       1 DSB         0.0002
      4 C3         19.4260   90.2940   50.6570 C.3       1 DSB        -0.0414
      5 C5         19.4090   89.3190   53.0310 C.3       1 DSB        -0.0530
      6 O1         20.1800   91.9210   48.7380 O.co2     1 DSB        -0.5690
      7 C6         19.1040   88.1300   53.8630 C.3       1 DSB        -0.0530
      8 C8         21.2680   87.0130   52.8070 C.3       1 DSB        -0.0414
      9 C9         22.1730   88.0670   53.4550 C.3       1 DSB         0.0002
     10 C10        23.6270   87.6400   53.4910 C.2       1 DSB         0.0348
     11 O11        23.8890   86.4150   53.4100 O.co2     1 DSB        -0.5690
     12 O12        24.4650   88.5480   53.6370 O.co2     1 DSB        -0.5690
     13 C7         19.9240   86.9150   53.4810 C.3       1 DSB        -0.0516
     14 C4         19.0370   89.1560   51.5690 C.3       1 DSB        -0.0516
     15 H1         21.5125   90.5441   51.0739 H         1 DSB         0.0430
     16 H2         21.1219   89.1723   49.9820 H         1 DSB         0.0430
     17 H3         18.7959   90.2595   49.7560 H         1 DSB         0.0283
     18 H4         19.2603   91.2451   51.1841 H         1 DSB         0.0283
     19 H5         20.4890   89.5183   53.0937 H         1 DSB         0.0265
     20 H6         18.8535   90.1775   53.4364 H         1 DSB         0.0265
     21 H7         18.0381   87.8844   53.7463 H         1 DSB         0.0265
     22 H8         19.3107   88.3758   54.9151 H         1 DSB         0.0265
     23 H9         21.7660   86.0341   52.8687 H         1 DSB         0.0283
     24 H10        21.1146   87.2805   51.7511 H         1 DSB         0.0283
     25 H11        21.8306   88.2404   54.4859 H         1 DSB         0.0430
     26 H12        22.0939   89.0015   52.8802 H         1 DSB         0.0430
     27 H13        19.2895   86.3202   52.8075 H         1 DSB         0.0266
     28 H14        20.0924   86.3571   54.4139 H         1 DSB         0.0266
     29 H15        19.5264   88.2439   51.1968 H         1 DSB         0.0266
     30 H16        17.9451   89.0361   51.5108 H         1 DSB         0.0266
@<TRIPOS>BOND
     1    1    2 ar 
     2    3    1 1  
     3    1    6 ar 
     4    4    3 1  
     5   14    4 1  
     6    7    5 1  
     7    5   14 1  
     8   13    7 1  
     9    8    9 1  
    10    8   13 1  
    11    9   10 1  
    12   10   11 ar 
    13   10   12 ar 
    14    3   15 1  
    15    3   16 1  
    16    4   17 1  
    17    4   18 1  
    18    5   19 1  
    19    5   20 1  
    20    7   21 1  
    21    7   22 1  
    22    8   23 1  
    23    8   24 1  
    24    9   25 1  
    25    9   26 1  
    26   13   27 1  
    27   13   28 1  
    28   14   29 1  
    29   14   30 1  
@<TRIPOS>SUBSTRUCTURE
     1 DSB         1

