### 
### Created by X-TOOL on Mon Sep 10 21:12:48 2018
### 

@<TRIPOS>MOLECULE
1i8z_ligand
   54    57     1     0     0
SMALL
GAST_HUCK


@<TRIPOS>ATOM
      1 S1         -5.9430    0.6900   16.7430 S.o2      1 INL         0.0744
      2 O2         -5.4330    0.7710   18.0390 O.2       1 INL        -0.1500
      3 O3         -7.3270    0.7100   16.7950 O.2       1 INL        -0.1500
      4 N4         -5.4450   -0.5330   16.1380 N.am      1 INL        -0.2605
      5 C5         -5.4080    1.9220   15.8850 C.2       1 INL         0.1592
      6 C6         -4.0990    1.9930   15.3380 C.2       1 INL        -0.0446
      7 C7         -3.9320    3.2050   14.5940 C.2       1 INL        -0.0311
      8 C8         -5.1610    3.9930   14.6270 C.2       1 INL         0.1618
      9 S9         -6.1140    3.1920   15.4520 S.3       1 INL        -0.0010
     10 C10        -2.7850    3.7620   13.8900 C.3       1 INL         0.0009
     11 C11        -2.7680    5.0980   13.1030 C.3       1 INL         0.1121
     12 N12        -4.1030    5.8440   13.1700 N.am      1 INL        -0.1683
     13 S13        -5.1930    5.3870   14.0850 S.o2      1 INL         0.0937
     14 O14        -5.0530    6.2980   15.1230 O.2       1 INL        -0.1464
     15 O15        -6.4060    5.5890   13.4820 O.2       1 INL        -0.1464
     16 C16        -1.6680    5.6690   12.2600 C.3       1 INL        -0.0038
     17 C17        -0.9650    8.2270   12.2380 C.3       1 INL        -0.0077
     18 C18        -1.3190    9.6400   12.7770 C.3       1 INL         0.0878
     19 O19        -1.2940    9.6780   14.3340 O.3       1 INL        -0.3693
     20 C20        -2.1370    8.5850   14.9930 C.3       1 INL         0.0878
     21 C21        -1.8700    7.1860   14.4570 C.3       1 INL        -0.0077
     22 N22        -1.8960    7.1600   12.8610 N.4       1 INL         0.2403
     23 C23        -5.2900    7.1760   11.4220 C.ar      1 INL        -0.0182
     24 C24        -4.5910    5.9900   11.8120 C.ar      1 INL         0.0572
     25 C25        -4.4490    4.9060   10.8600 C.ar      1 INL        -0.0562
     26 C26        -4.9800    4.9620    9.4990 C.ar      1 INL        -0.0860
     27 C27        -5.6710    6.2500    9.2340 C.ar      1 INL        -0.0504
     28 C28        -5.9010    7.3800   10.1620 C.ar      1 INL         0.0749
     29 O29        -6.6000    8.4870    9.8150 O.3       1 INL        -0.3257
     30 C30        -6.5270    9.9610   10.5910 C.3       1 INL         0.0589
     31 H1         -5.6768   -1.4194   16.5386 H         1 INL         0.1635
     32 H2         -4.8703   -0.4886   15.3208 H         1 INL         0.1635
     33 H3         -3.3303    1.2324   15.4665 H         1 INL         0.0413
     34 H4         -2.4906    2.9925   13.1611 H         1 INL         0.0404
     35 H5         -1.9988    3.8648   14.6525 H         1 INL         0.0404
     36 H6         -2.3646    5.6274   13.9787 H         1 INL         0.0661
     37 H7         -1.8585    5.5961   11.1791 H         1 INL         0.0841
     38 H8         -0.6766    5.2498   12.4867 H         1 INL         0.0841
     39 H9         -1.0835    8.2167   11.1445 H         1 INL         0.0837
     40 H10         0.0782    7.9922   12.4960 H         1 INL         0.0837
     41 H11        -2.3258    9.9139   12.4286 H         1 INL         0.0613
     42 H12        -0.5873   10.3643   12.3897 H         1 INL         0.0613
     43 H13        -3.1986    8.8211   14.8283 H         1 INL         0.0613
     44 H14        -1.9238    8.5879   16.0721 H         1 INL         0.0613
     45 H15        -0.8812    6.8521   14.8045 H         1 INL         0.0837
     46 H16        -2.6428    6.5027   14.8389 H         1 INL         0.0837
     47 H17        -2.8317    7.4230   12.5941 H         1 INL         0.2036
     48 H18        -5.3566    7.9793   12.1468 H         1 INL         0.0397
     49 H19        -3.9237    4.0107   11.1723 H         1 INL         0.0394
     50 H20        -4.8817    4.1628    8.7733 H         1 INL         0.0547
     51 H21        -6.0574    6.3793    8.2295 H         1 INL         0.0402
     52 H22        -7.2008   10.6723   10.0910 H         1 INL         0.0577
     53 H23        -5.4966   10.3442   10.5541 H         1 INL         0.0577
     54 H24        -6.8356    9.8390   11.6397 H         1 INL         0.0577
@<TRIPOS>BOND
     1    1    5 1  
     2    1    4 am 
     3    1    3 2  
     4    1    2 2  
     5    5    9 1  
     6    5    6 2  
     7    6    7 1  
     8    7   10 1  
     9    7    8 2  
    10    8   13 1  
    11    8    9 1  
    12   13   15 2  
    13   13   14 2  
    14   13   12 am 
    15   12   24 1  
    16   12   11 1  
    17   11   16 1  
    18   11   10 1  
    19   16   22 1  
    20   22   21 1  
    21   22   17 1  
    22   17   18 1  
    23   18   19 1  
    24   19   20 1  
    25   20   21 1  
    26   24   23 ar 
    27   24   25 ar 
    28   25   26 ar 
    29   26   27 ar 
    30   27   28 ar 
    31   28   23 ar 
    32   28   29 1  
    33   29   30 1  
    34    4   31 1  
    35    4   32 1  
    36    6   33 1  
    37   10   34 1  
    38   10   35 1  
    39   11   36 1  
    40   16   37 1  
    41   16   38 1  
    42   17   39 1  
    43   17   40 1  
    44   18   41 1  
    45   18   42 1  
    46   20   43 1  
    47   20   44 1  
    48   21   45 1  
    49   21   46 1  
    50   22   47 1  
    51   23   48 1  
    52   25   49 1  
    53   26   50 1  
    54   27   51 1  
    55   30   52 1  
    56   30   53 1  
    57   30   54 1  
@<TRIPOS>SUBSTRUCTURE
     1 INL         1

