### 
### Created by X-TOOL on Mon Sep 10 21:12:48 2018
### 

@<TRIPOS>MOLECULE
1i90_ligand
   39    40     1     0     0
SMALL
GAST_HUCK


@<TRIPOS>ATOM
      1 N01        -3.8070    6.1240   13.3620 N.am      1 INM        -0.2286
      2 C02        -3.2350    5.0040   12.6710 C.3       1 INM         0.0785
      3 S03        -5.2710    5.7440   14.0800 S.o2      1 INM         0.0727
      4 O04        -6.4790    5.8450   12.8990 O.2       1 INM        -0.1520
      5 O05        -5.6330    6.8010   15.3370 O.2       1 INM        -0.1520
      6 C06        -2.9130    3.7540   13.5460 C.3       1 INM         0.0162
      7 N07        -2.4240    2.6860   12.6490 N.4       1 INM         0.2308
      8 C08        -2.8620    6.7840   14.2810 C.3       1 INM         0.0319
      9 C09        -2.3560    8.0930   13.6810 C.3       1 INM        -0.0123
     10 C10        -1.3800    8.8020   14.6000 C.3       1 INM         0.0488
     11 O11        -0.9490   10.0090   13.9940 O.3       1 INM        -0.3829
     12 C12        -0.0220   10.7120   14.8280 C.3       1 INM         0.0364
     13 C13        -4.1150    2.1930   15.0390 C.2       1 INM        -0.0394
     14 C14        -4.0170    3.3230   14.3240 C.2       1 INM         0.0145
     15 C15        -5.1960    4.1310   14.6120 C.2       1 INM         0.1611
     16 S16        -6.0290    3.4300   15.4720 S.3       1 INM        -0.0013
     17 C17        -5.3800    2.1290   15.7970 C.2       1 INM         0.1594
     18 S18        -5.8920    0.9590   16.7020 S.o2      1 INM         0.0744
     19 N19        -5.8390   -0.2510   15.9890 N.am      1 INM        -0.2605
     20 O20        -5.0620    0.8360   17.8050 O.2       1 INM        -0.1500
     21 O21        -7.1600    1.2450   17.1710 O.2       1 INM        -0.1500
     22 H1         -2.2968    5.3393   12.2048 H         1 INM         0.0552
     23 H2         -3.9430    4.6938   11.8884 H         1 INM         0.0552
     24 H3         -2.1040    4.0212   14.2418 H         1 INM         0.0981
     25 H4         -2.2081    1.8643   13.1915 H         1 INM         0.2007
     26 H5         -1.5938    3.0015   12.1722 H         1 INM         0.2007
     27 H6         -3.1366    2.4637   11.9716 H         1 INM         0.2007
     28 H7         -2.0076    6.1154   14.4628 H         1 INM         0.0479
     29 H8         -3.3712    6.9955   15.2328 H         1 INM         0.0479
     30 H9         -3.2153    8.7548   13.4978 H         1 INM         0.0303
     31 H10        -1.8515    7.8749   12.7282 H         1 INM         0.0303
     32 H11        -0.5108    8.1529   14.7822 H         1 INM         0.0560
     33 H12        -1.8752    9.0285   15.5557 H         1 INM         0.0560
     34 H13         0.2901   11.6406   14.3276 H         1 INM         0.0523
     35 H14         0.8594   10.0798   15.0106 H         1 INM         0.0523
     36 H15        -0.5032   10.9560   15.7866 H         1 INM         0.0523
     37 H16        -3.3527    1.4156   15.0582 H         1 INM         0.0415
     38 H17        -6.1328   -1.1016   16.4251 H         1 INM         0.1635
     39 H18        -5.5074   -0.2613   15.0456 H         1 INM         0.1635
@<TRIPOS>BOND
     1    1    8 1  
     2    1    3 am 
     3    1    2 1  
     4    2    6 1  
     5    6   14 1  
     6    6    7 1  
     7   14   13 1  
     8   14   15 2  
     9   15   16 1  
    10   15    3 1  
    11    3    5 2  
    12    3    4 2  
    13   16   17 1  
    14   17   13 2  
    15   17   18 1  
    16   18   21 2  
    17   18   20 2  
    18   18   19 am 
    19    8    9 1  
    20    9   10 1  
    21   10   11 1  
    22   11   12 1  
    23    2   22 1  
    24    2   23 1  
    25    6   24 1  
    26    7   25 1  
    27    7   26 1  
    28    7   27 1  
    29    8   28 1  
    30    8   29 1  
    31    9   30 1  
    32    9   31 1  
    33   10   32 1  
    34   10   33 1  
    35   12   34 1  
    36   12   35 1  
    37   12   36 1  
    38   13   37 1  
    39   19   38 1  
    40   19   39 1  
@<TRIPOS>SUBSTRUCTURE
     1 INM         1

