### 
### Created by X-TOOL on Mon Sep 10 21:12:48 2018
### 

@<TRIPOS>MOLECULE
1i91_ligand
   51    54     1     0     0
SMALL
GAST_HUCK


@<TRIPOS>ATOM
      1 S01        -6.1530    0.2870   16.8760 S.o2      1 INQ         0.0744
      2 O02        -7.5280    0.3360   17.0620 O.2       1 INQ        -0.1500
      3 N03        -5.7960   -0.9580   16.1640 N.am      1 INQ        -0.2605
      4 C04        -5.7080    1.6050   16.0510 C.2       1 INQ         0.1592
      5 C05        -4.4210    1.7460   15.3990 C.2       1 INQ        -0.0446
      6 C06        -4.3170    2.9990   14.7280 C.2       1 INQ        -0.0311
      7 C07        -5.5490    3.7790   14.9020 C.2       1 INQ         0.1618
      8 S08        -6.4750    2.9090   15.7660 S.3       1 INQ        -0.0010
      9 C09        -3.2340    3.5670   13.9310 C.3       1 INQ         0.0009
     10 C10        -3.2460    4.9490   13.1950 C.3       1 INQ         0.1121
     11 N11        -4.5660    5.7190   13.3990 N.am      1 INQ        -0.1683
     12 S12        -5.6820    5.1790   14.2850 S.o2      1 INQ         0.0937
     13 O13        -5.7200    6.1470   15.3100 O.2       1 INQ        -0.1464
     14 O14        -6.9280    5.2890   13.6260 O.2       1 INQ        -0.1464
     15 C15        -2.1680    5.5830   12.3100 C.3       1 INQ        -0.0038
     16 C16        -1.3740    8.1220   12.3990 C.3       1 INQ        -0.0077
     17 C17        -1.5760    9.5000   13.1220 C.3       1 INQ         0.0878
     18 O18        -1.3080    9.3870   14.6680 O.3       1 INQ        -0.3693
     19 C19        -2.0660    8.2320   15.3390 C.3       1 INQ         0.0878
     20 C20        -1.9740    6.9030   14.5960 C.3       1 INQ        -0.0077
     21 N21        -2.3010    7.0400   13.0300 N.4       1 INQ         0.2403
     22 C22        -5.7150    7.1820   11.6870 C.ar      1 INQ        -0.0184
     23 C23        -5.1200    5.9270   12.0430 C.ar      1 INQ         0.0571
     24 C24        -5.0930    4.8510   11.0330 C.ar      1 INQ        -0.0562
     25 C25        -5.6500    5.0030    9.6610 C.ar      1 INQ        -0.0860
     26 C26        -6.2290    6.3580    9.4470 C.ar      1 INQ        -0.0506
     27 C27        -6.2930    7.4860   10.4080 C.ar      1 INQ         0.0717
     28 O28        -6.8860    8.8780   10.1060 O.3       1 INQ        -0.3376
     29 O29        -5.5090    0.2980   18.1190 O.2       1 INQ        -0.1500
     30 H1         -6.1677   -1.1372   15.2531 H         1 INQ         0.1635
     31 H2         -5.1828   -1.6212   16.5932 H         1 INQ         0.1635
     32 H3         -3.6354    0.9921   15.4193 H         1 INQ         0.0413
     33 H4         -3.0394    2.8249   13.1427 H         1 INQ         0.0404
     34 H5         -2.3715    3.6132   14.6121 H         1 INQ         0.0404
     35 H6         -2.7796    5.4226   14.0714 H         1 INQ         0.0661
     36 H7         -2.4335    5.5983   11.2427 H         1 INQ         0.0841
     37 H8         -1.1761    5.1241   12.4346 H         1 INQ         0.0841
     38 H9         -1.6188    8.2325   11.3323 H         1 INQ         0.0837
     39 H10        -0.3252    7.8074   12.5039 H         1 INQ         0.0837
     40 H11        -2.6104    9.8385   12.9628 H         1 INQ         0.0613
     41 H12        -0.8794   10.2345   12.6917 H         1 INQ         0.0613
     42 H13        -3.1270    8.5129   15.4117 H         1 INQ         0.0613
     43 H14        -1.6540    8.0908   16.3491 H         1 INQ         0.0613
     44 H15        -0.9537    6.5077   14.7085 H         1 INQ         0.0837
     45 H16        -2.6912    6.1997   15.0443 H         1 INQ         0.0837
     46 H17        -3.2545    7.3501   12.9266 H         1 INQ         0.2036
     47 H18        -5.7297    7.9608   12.4408 H         1 INQ         0.0397
     48 H19        -4.6448    3.9020   11.3041 H         1 INQ         0.0394
     49 H20        -5.6358    4.2222    8.9092 H         1 INQ         0.0547
     50 H21        -6.6565    6.5429    8.4681 H         1 INQ         0.0402
     51 H22        -6.2087    9.5371   10.2020 H         1 INQ         0.2476
@<TRIPOS>BOND
     1    1   29 2  
     2    1    4 1  
     3    1    3 am 
     4    1    2 2  
     5    4    8 1  
     6    4    5 2  
     7    5    6 1  
     8    6    9 1  
     9    6    7 2  
    10    7   12 1  
    11    7    8 1  
    12   12   14 2  
    13   12   13 2  
    14   12   11 am 
    15   11   23 1  
    16   11   10 1  
    17   10   15 1  
    18   10    9 1  
    19   15   21 1  
    20   21   20 1  
    21   21   16 1  
    22   16   17 1  
    23   17   18 1  
    24   18   19 1  
    25   19   20 1  
    26   23   22 ar 
    27   23   24 ar 
    28   24   25 ar 
    29   25   26 ar 
    30   26   27 ar 
    31   27   22 ar 
    32   27   28 1  
    33    3   30 1  
    34    3   31 1  
    35    5   32 1  
    36    9   33 1  
    37    9   34 1  
    38   10   35 1  
    39   15   36 1  
    40   15   37 1  
    41   16   38 1  
    42   16   39 1  
    43   17   40 1  
    44   17   41 1  
    45   19   42 1  
    46   19   43 1  
    47   20   44 1  
    48   20   45 1  
    49   21   46 1  
    50   22   47 1  
    51   24   48 1  
    52   25   49 1  
    53   26   50 1  
    54   28   51 1  
@<TRIPOS>SUBSTRUCTURE
     1 INQ         1

