### 
### Created by X-TOOL on Fri Sep 26 17:34:18 2014
### 

@<TRIPOS>MOLECULE
1i9m_ligand
   34    35     1     0     0
SMALL
GAST_HUCK


@<TRIPOS>ATOM
      1 C01        -3.9680    2.8040   14.6740 C.ar      1 INW        -0.0401
      2 C02        -4.3270    1.6720   15.4360 C.ar      1 INW        -0.0295
      3 C03        -5.7060    1.5440   15.8940 C.ar      1 INW         0.1122
      4 C04        -6.6270    2.5370   15.5880 C.ar      1 INW        -0.0295
      5 C05        -6.2270    3.6780   14.8150 C.ar      1 INW        -0.0401
      6 C06        -4.9050    3.8160   14.3500 C.ar      1 INW         0.0501
      7 C07        -4.4080    5.0030   13.4890 C.2       1 INW         0.2066
      8 O08        -5.2540    5.9000   13.1880 O.2       1 INW        -0.3845
      9 N09        -3.0020    5.0920   13.0130 N.am      1 INW        -0.2760
     10 C10        -2.5060    6.2930   12.4110 C.3       1 INW         0.0630
     11 S11        -6.0790    0.0920   16.8130 S.o2      1 INW         0.0677
     12 NP2        -5.6260   -1.3670   16.0730 N.am      1 INW        -0.2605
     13 O13        -7.4590    0.3680   16.9980 O.2       1 INW        -0.1499
     14 O14        -5.3510    0.4320   18.0720 O.2       1 INW        -0.1499
     15 C15        -1.7550    7.1970   13.1670 C.ar      1 INW         0.0088
     16 C16        -1.9520    7.2980   14.6770 C.ar      1 INW         0.1335
     17 C17        -1.1090    8.2910   15.4010 C.ar      1 INW        -0.0014
     18 C18        -0.1170    9.1450   14.6790 C.ar      1 INW         0.1231
     19 C19         0.0510    9.0210   13.2010 C.ar      1 INW        -0.0389
     20 C20        -0.7530    8.0620   12.4420 C.ar      1 INW        -0.0617
     21 F21         0.5680    9.9590   15.3070 F         1 INW        -0.1903
     22 F22        -2.7600    6.6110   15.2960 F         1 INW        -0.1900
     23 H1         -2.9459    2.9021   14.3265 H         1 INW         0.0670
     24 H2         -3.5922    0.9122   15.6764 H         1 INW         0.0649
     25 H3         -7.6507    2.4501   15.9339 H         1 INW         0.0649
     26 H4         -6.9554    4.4472   14.5850 H         1 INW         0.0670
     27 H5         -2.3954    4.3035   13.1145 H         1 INW         0.1870
     28 H6         -3.3807    6.8439   12.0350 H         1 INW         0.0667
     29 H7         -1.8743    5.9860   11.5645 H         1 INW         0.0667
     30 H8         -5.8041   -2.2371   16.5325 H         1 INW         0.1635
     31 H9         -5.1810   -1.3564   15.1775 H         1 INW         0.1635
     32 H10        -1.2175    8.3963   16.4744 H         1 INW         0.0572
     33 H11         0.7729    9.6450   12.6867 H         1 INW         0.0552
     34 H12        -0.6299    7.9738   11.3686 H         1 INW         0.0537
@<TRIPOS>BOND
     1    1    2 ar 
     2    1    6 ar 
     3    2    3 ar 
     4    3    4 ar 
     5    3   11 1  
     6    4    5 ar 
     7    5    6 ar 
     8    6    7 1  
     9    7    8 2  
    10    7    9 am 
    11    9   10 1  
    12   10   15 1  
    13   11   12 am 
    14   11   13 2  
    15   11   14 2  
    16   15   16 ar 
    17   15   20 ar 
    18   16   17 ar 
    19   16   22 1  
    20   17   18 ar 
    21   18   19 ar 
    22   18   21 1  
    23   19   20 ar 
    24    1   23 1  
    25    2   24 1  
    26    4   25 1  
    27    5   26 1  
    28    9   27 1  
    29   10   28 1  
    30   10   29 1  
    31   12   30 1  
    32   12   31 1  
    33   17   32 1  
    34   19   33 1  
    35   20   34 1  
@<TRIPOS>SUBSTRUCTURE
     1 INW         1

