### 
### Created by X-TOOL on Mon Sep 10 21:12:48 2018
### 

@<TRIPOS>MOLECULE
1i9n_ligand
   34    35     1     0     0
SMALL
GAST_HUCK


@<TRIPOS>ATOM
      1 C01        -3.8580    2.6650   14.6340 C.ar      1 IOA        -0.0401
      2 C02        -4.2550    1.6000   15.4550 C.ar      1 IOA        -0.0295
      3 C03        -5.6300    1.5110   15.8800 C.ar      1 IOA         0.1122
      4 C04        -6.5210    2.5060   15.4670 C.ar      1 IOA        -0.0295
      5 C05        -6.0910    3.5650   14.6510 C.ar      1 IOA        -0.0401
      6 C06        -4.7660    3.6560   14.2180 C.ar      1 IOA         0.0501
      7 C07        -4.2940    4.7950   13.3100 C.2       1 IOA         0.2067
      8 O08        -5.1660    5.6310   12.9800 O.2       1 IOA        -0.3845
      9 N09        -2.9430    4.9470   12.8050 N.am      1 IOA        -0.2755
     10 C10        -2.5340    6.2940   12.4270 C.3       1 IOA         0.0640
     11 S11        -6.0970    0.1220   16.9150 S.o2      1 IOA         0.0677
     12 NP2        -5.6460   -1.3760   16.2760 N.am      1 IOA        -0.2605
     13 O13        -7.5310    0.3470   17.0640 O.2       1 IOA        -0.1499
     14 O14        -5.4160    0.4830   18.1730 O.2       1 IOA        -0.1499
     15 C15        -1.8730    7.1420   13.3370 C.ar      1 IOA         0.0108
     16 C16        -2.1550    7.0100   14.7610 C.ar      1 IOA        -0.0267
     17 C17        -1.4740    7.8960   15.7000 C.ar      1 IOA         0.1216
     18 C18        -0.5340    8.8880   15.2000 C.ar      1 IOA        -0.0370
     19 C19        -0.2600    9.0020   13.7600 C.ar      1 IOA        -0.0366
     20 C20        -0.9230    8.1380   12.8340 C.ar      1 IOA         0.1306
     21 F21        -0.6810    8.2560   11.6550 F         1 IOA        -0.1924
     22 F22        -1.7210    7.7970   17.0360 F         1 IOA        -0.1887
     23 H1         -2.8249    2.7265   14.3115 H         1 IOA         0.0670
     24 H2         -3.5358    0.8514   15.7670 H         1 IOA         0.0649
     25 H3         -7.5575    2.4595   15.7808 H         1 IOA         0.0649
     26 H4         -6.8014    4.3269   14.3512 H         1 IOA         0.0670
     27 H5         -2.3232    4.1668   12.7204 H         1 IOA         0.1871
     28 H6         -3.4485    6.8216   12.1184 H         1 IOA         0.0674
     29 H7         -1.8641    6.1842   11.5614 H         1 IOA         0.0674
     30 H8         -5.8589   -2.2166   16.7741 H         1 IOA         0.1635
     31 H9         -5.1663   -1.4219   15.3998 H         1 IOA         0.1635
     32 H10        -2.8588    6.2662   15.1167 H         1 IOA         0.0532
     33 H11        -0.0309    9.5494   15.8961 H         1 IOA         0.0536
     34 H12         0.4456    9.7421   13.4001 H         1 IOA         0.0576
@<TRIPOS>BOND
     1    1    6 ar 
     2    1    2 ar 
     3    2    3 ar 
     4    3   11 1  
     5    3    4 ar 
     6    4    5 ar 
     7    5    6 ar 
     8    6    7 1  
     9    7    9 am 
    10    7    8 2  
    11    9   10 1  
    12   10   15 1  
    13   15   20 ar 
    14   15   16 ar 
    15   16   17 ar 
    16   17   18 ar 
    17   18   19 ar 
    18   19   20 ar 
    19   11   14 2  
    20   11   13 2  
    21   11   12 am 
    22   20   21 1  
    23   17   22 1  
    24    1   23 1  
    25    2   24 1  
    26    4   25 1  
    27    5   26 1  
    28    9   27 1  
    29   10   28 1  
    30   10   29 1  
    31   12   30 1  
    32   12   31 1  
    33   16   32 1  
    34   18   33 1  
    35   19   34 1  
@<TRIPOS>SUBSTRUCTURE
     1 IOA         1

