### 
### Created by X-TOOL on Mon Sep 10 21:12:48 2018
### 

@<TRIPOS>MOLECULE
1i9p_ligand
   34    35     1     0     0
SMALL
GAST_HUCK


@<TRIPOS>ATOM
      1 C01        -3.8510    1.6170   14.7430 C.ar      1 IOE        -0.0401
      2 C02        -4.1800    0.4630   15.4890 C.ar      1 IOE        -0.0295
      3 C03        -5.5540    0.2410   15.9110 C.ar      1 IOE         0.1122
      4 C04        -6.5050    1.2040   15.5580 C.ar      1 IOE        -0.0295
      5 C05        -6.1370    2.3520   14.8100 C.ar      1 IOE        -0.0401
      6 C06        -4.8310    2.5760   14.3920 C.ar      1 IOE         0.0501
      7 C07        -4.4640    3.8270   13.5640 C.2       1 IOE         0.2065
      8 O08        -5.4180    4.6030   13.2970 O.2       1 IOE        -0.3845
      9 N09        -3.1290    4.1660   13.0660 N.am      1 IOE        -0.2766
     10 C10        -2.3080    4.9940   13.9390 C.3       1 IOE         0.0638
     11 S11        -5.9440   -1.2630   16.8650 S.o2      1 IOE         0.0677
     12 NP2        -5.3910   -2.7190   16.1190 N.am      1 IOE        -0.2605
     13 O13        -7.4090   -1.0910   17.0270 O.2       1 IOE        -0.1499
     14 O14        -5.3240   -0.9270   18.1850 O.2       1 IOE        -0.1499
     15 C15        -2.5470    6.3760   14.1340 C.ar      1 IOE         0.0422
     16 C16        -3.4810    7.1050   13.2430 C.ar      1 IOE         0.1319
     17 C17        -3.6960    8.5470   13.4920 C.ar      1 IOE        -0.0054
     18 C18        -3.0030    9.2390   14.5910 C.ar      1 IOE         0.1215
     19 C19        -2.0840    8.4920   15.4510 C.ar      1 IOE        -0.0054
     20 C20        -1.8530    7.0760   15.2350 C.ar      1 IOE         0.1319
     21 F21        -0.9930    6.3940   16.0510 F         1 IOE        -0.1911
     22 F22        -3.2140   10.5740   14.8050 F         1 IOE        -0.1913
     23 F23        -4.1280    6.4780   12.2160 F         1 IOE        -0.1911
     24 H1         -2.8240    1.7715   14.4322 H         1 IOE         0.0670
     25 H2         -3.4100   -0.2553   15.7462 H         1 IOE         0.0649
     26 H3         -7.5376    1.0713   15.8601 H         1 IOE         0.0649
     27 H4         -6.9002    3.0787   14.5561 H         1 IOE         0.0670
     28 H5         -2.7999    3.8471   12.1772 H         1 IOE         0.1868
     29 H6         -1.2803    4.9147   13.5548 H         1 IOE         0.0659
     30 H7         -2.3635    4.5325   14.9359 H         1 IOE         0.0659
     31 H8         -5.5545   -3.6008   16.5614 H         1 IOE         0.1635
     32 H9         -4.9073   -2.6803   15.2446 H         1 IOE         0.1635
     33 H10        -4.3745    9.1030   12.8552 H         1 IOE         0.0539
     34 H11        -1.5705    9.0021   16.2579 H         1 IOE         0.0539
@<TRIPOS>BOND
     1    1    6 ar 
     2    1    2 ar 
     3    2    3 ar 
     4    3   11 1  
     5    3    4 ar 
     6    4    5 ar 
     7    5    6 ar 
     8    6    7 1  
     9    7    9 am 
    10    7    8 2  
    11    9   10 1  
    12   10   15 1  
    13   15   20 ar 
    14   15   16 ar 
    15   16   17 ar 
    16   17   18 ar 
    17   18   19 ar 
    18   19   20 ar 
    19   11   14 2  
    20   11   13 2  
    21   11   12 am 
    22   18   22 1  
    23   16   23 1  
    24   20   21 1  
    25    1   24 1  
    26    2   25 1  
    27    4   26 1  
    28    5   27 1  
    29    9   28 1  
    30   10   29 1  
    31   10   30 1  
    32   12   31 1  
    33   12   32 1  
    34   17   33 1  
    35   19   34 1  
@<TRIPOS>SUBSTRUCTURE
     1 IOE         1

