### 
### Created by X-TOOL on Mon Sep 10 21:12:46 2018
### 

@<TRIPOS>MOLECULE
1ibc_ligand
   77    79     1     0     0
SMALL
GAST_HUCK


@<TRIPOS>ATOM
      1 C          31.8020   70.9310   11.1460 C.2       1 ACE         0.1752
      2 O          32.1910   71.5280   10.1430 O.2       1 ACE        -0.3972
      3 CH3        30.7830   71.5700   12.0600 C.3       1 ACE         0.0258
      4 N          32.2840   69.7530   11.5290 N.am      1 TRP        -0.2648
      5 CA         33.2620   68.9950   10.7490 C.3       1 TRP         0.1351
      6 C          32.6670   67.6170   10.5260 C.2       1 TRP         0.2052
      7 O          31.8890   67.1410   11.3500 O.2       1 TRP        -0.3942
      8 CB         34.5880   68.8670   11.4990 C.3       1 TRP         0.0042
      9 CG         35.4100   70.1160   11.4880 C.2       1 TRP        -0.0418
     10 CD1        35.2230   71.2250   12.2560 C.2       1 TRP         0.0167
     11 CD2        36.5440   70.3910   10.6550 C.ar      1 TRP        -0.0214
     12 NE1        36.1670   72.1770   11.9540 N.pl3     1 TRP        -0.2890
     13 CE2        36.9900   71.6940   10.9720 C.ar      1 TRP         0.0603
     14 CE3        37.2230   69.6690    9.6640 C.ar      1 TRP        -0.0747
     15 CZ2        38.0850   72.2920   10.3350 C.ar      1 TRP        -0.0443
     16 CZ3        38.3120   70.2630    9.0290 C.ar      1 TRP        -0.0792
     17 CH2        38.7290   71.5640    9.3690 C.ar      1 TRP        -0.0768
     18 N          33.0260   66.9730    9.4230 N.am      1 GLU        -0.2635
     19 CA         32.4870   65.6540    9.1130 C.3       1 GLU         0.1325
     20 C          33.5740   64.6470    8.7540 C.2       1 GLU         0.2041
     21 O          34.7590   64.9720    8.7370 O.2       1 GLU        -0.3944
     22 CB         31.4830   65.7490    7.9560 C.3       1 GLU        -0.0008
     23 CG         30.2700   66.6420    8.2050 C.3       1 GLU         0.0044
     24 CD         29.3400   66.7110    7.0020 C.2       1 GLU         0.0350
     25 OE1        29.0350   65.6510    6.4090 O.co2     1 GLU        -0.5690
     26 OE2        28.9120   67.8290    6.6460 O.co2     1 GLU        -0.5690
     27 N          33.1510   63.4170    8.4830 N.am      1 HIS        -0.2619
     28 CA         34.0550   62.3430    8.1060 C.3       1 HIS         0.1420
     29 C          34.0280   62.1810    6.5960 C.2       1 HIS         0.2042
     30 O          32.9540   62.1590    5.9860 O.2       1 HIS        -0.3943
     31 CB         33.6050   61.0140    8.7190 C.3       1 HIS         0.0427
     32 CG         33.7350   60.9410   10.2080 C.2       1 HIS         0.0561
     33 ND1        34.3780   61.9080   10.9520 N.pl3     1 HIS        -0.2623
     34 CD2        33.3130   60.0060   11.0890 C.2       1 HIS        -0.0276
     35 CE1        34.3460   61.5680   12.2280 C.2       1 HIS         0.0875
     36 NE2        33.7070   60.4180   12.3390 N.2       1 HIS        -0.3437
     37 N          35.2080   62.0920    6.0000 N.am      1 ASA        -0.2780
     38 CA         35.3190   61.8840    4.5710 C.3       1 ASA         0.0764
     39 C          35.5730   60.4080    4.3170 C.3       1 ASA         0.0687
     40 O          34.3460   59.7810    3.9470 O.3       1 ASA        -0.3926
     41 CB         36.4590   62.7230    3.9890 C.3       1 ASA         0.0254
     42 CG         36.0540   63.4740    2.7290 C.2       1 ASA         0.0371
     43 OD1        34.9050   63.9440    2.6530 O.co2     1 ASA        -0.5689
     44 OD2        36.8900   63.6000    1.8110 O.co2     1 ASA        -0.5689
     45 H1         30.5620   70.8894   12.8954 H         1 ACE         0.0467
     46 H2         29.8598   71.7707   11.4966 H         1 ACE         0.0467
     47 H3         31.1852   72.5151   12.4537 H         1 ACE         0.0467
     48 H4         31.9621   69.3659   12.3930 H         1 TRP         0.1884
     49 H5         33.4374   69.4932    9.7841 H         1 TRP         0.0815
     50 H6         35.1743   68.0618   11.0322 H         1 TRP         0.0397
     51 H7         34.3711   68.6037   12.5448 H         1 TRP         0.0397
     52 H8         34.4383   71.3408   13.0021 H         1 TRP         0.0795
     53 H9         36.2432   73.1046   12.3953 H         1 TRP         0.2216
     54 H10        36.9069   68.6672    9.3965 H         1 TRP         0.0540
     55 H11        38.4105   73.2924   10.5963 H         1 TRP         0.0541
     56 H12        38.8463   69.7149    8.2614 H         1 TRP         0.0510
     57 H13        39.5784   71.9995    8.8552 H         1 TRP         0.0530
     58 H14        33.6766   67.3989    8.7942 H         1 GLU         0.1883
     59 H15        31.9600   65.2852   10.0053 H         1 GLU         0.0801
     60 H16        31.1173   64.7340    7.7414 H         1 GLU         0.0330
     61 H17        32.0161   66.1402    7.0769 H         1 GLU         0.0330
     62 H18        30.6217   67.6580    8.4376 H         1 GLU         0.0433
     63 H19        29.7084   66.2431    9.0625 H         1 GLU         0.0433
     64 H20        32.1718   63.2224    8.5407 H         1 HIS         0.1885
     65 H21        35.0737   62.5840    8.4440 H         1 HIS         0.0824
     66 H22        34.2148   60.2099    8.2812 H         1 HIS         0.0491
     67 H23        32.5481   60.8560    8.4584 H         1 HIS         0.0491
     68 H24        34.8142   62.7605   10.5727 H         1 HIS         0.2386
     69 H25        32.7634   59.0962   10.8519 H         1 HIS         0.0324
     70 H26        34.7744   62.1398   13.0498 H         1 HIS         0.1149
     71 H27        36.0402   62.1702    6.5489 H         1 ASA         0.1857
     72 H28        34.3763   62.1798    4.0876 H         1 ASA         0.0597
     73 H29        35.9655   59.9389    5.2313 H         1 ASA         0.0581
     74 H30        36.3047   60.2946    3.5035 H         1 ASA         0.0581
     75 H31        34.0088   60.1885    3.1579 H         1 ASA         0.2095
     76 H32        37.2983   62.0550    3.7456 H         1 ASA         0.0454
     77 H33        36.7796   63.4538    4.7460 H         1 ASA         0.0454
@<TRIPOS>BOND
     1    1    2 2  
     2    1    3 1  
     3    1    4 am 
     4    4    5 1  
     5    5    6 1  
     6    5    8 1  
     7    6    7 2  
     8    6   18 am 
     9    8    9 1  
    10    9   10 2  
    11    9   11 1  
    12   10   12 1  
    13   11   13 ar 
    14   11   14 ar 
    15   12   13 1  
    16   13   15 ar 
    17   14   16 ar 
    18   15   17 ar 
    19   16   17 ar 
    20   18   19 1  
    21   19   20 1  
    22   19   22 1  
    23   20   21 2  
    24   20   27 am 
    25   22   23 1  
    26   23   24 1  
    27   24   25 ar 
    28   24   26 ar 
    29   27   28 1  
    30   28   29 1  
    31   28   31 1  
    32   29   30 2  
    33   29   37 am 
    34   31   32 1  
    35   32   33 1  
    36   32   34 2  
    37   33   35 1  
    38   34   36 1  
    39   35   36 2  
    40   37   38 1  
    41   38   39 1  
    42   38   41 1  
    43   39   40 1  
    44   41   42 1  
    45   42   43 ar 
    46   42   44 ar 
    47    3   45 1  
    48    3   46 1  
    49    3   47 1  
    50    4   48 1  
    51    5   49 1  
    52    8   50 1  
    53    8   51 1  
    54   10   52 1  
    55   12   53 1  
    56   14   54 1  
    57   15   55 1  
    58   16   56 1  
    59   17   57 1  
    60   18   58 1  
    61   19   59 1  
    62   22   60 1  
    63   22   61 1  
    64   23   62 1  
    65   23   63 1  
    66   27   64 1  
    67   28   65 1  
    68   31   66 1  
    69   31   67 1  
    70   33   68 1  
    71   34   69 1  
    72   35   70 1  
    73   37   71 1  
    74   38   72 1  
    75   39   73 1  
    76   39   74 1  
    77   40   75 1  
    78   41   76 1  
    79   41   77 1  
@<TRIPOS>SUBSTRUCTURE
     1 ACE         1

