### 
### Created by X-TOOL on Mon Sep 10 21:12:45 2018
### 

@<TRIPOS>MOLECULE
1ibg_ligand
   85    90     1     0     0
SMALL
GAST_HUCK


@<TRIPOS>ATOM
      1 C1          6.9710   11.8370   41.9510 C.3       1 OBN         0.0683
      2 C2          5.9560   11.9670   43.0680 C.3       1 OBN         0.0004
      3 C3          5.4240   10.6210   43.5440 C.3       1 OBN         0.0668
      4 C4          5.0390    9.6940   42.3750 C.3       1 OBN         0.0032
      5 C5          5.9520    9.6640   41.1110 C.3       1 OBN         0.0788
      6 C6          5.2010    9.0170   39.9300 C.3       1 OBN        -0.0229
      7 C7          3.8690    9.7320   39.7060 C.3       1 OBN        -0.0446
      8 C8          4.1560   11.1360   39.2150 C.3       1 OBN        -0.0054
      9 C9          4.9770   11.9610   40.2210 C.3       1 OBN         0.0032
     10 C10         6.3030   11.1670   40.6900 C.3       1 OBN         0.0540
     11 C11         5.1370   13.4020   39.6330 C.3       1 OBN         0.0600
     12 C12         3.8190   14.0640   39.2490 C.3       1 OBN        -0.0156
     13 C13         3.0650   13.3000   38.1650 C.3       1 OBN         0.0170
     14 C14         2.9000   11.8250   38.6330 C.3       1 OBN         0.0777
     15 C15         1.7050   11.9330   39.5610 C.3       1 OBN        -0.0201
     16 C16         0.8730   13.1380   39.1160 C.3       1 OBN        -0.0318
     17 C17         1.6480   13.8700   38.0430 C.3       1 OBN         0.0154
     18 C18         3.8590   13.4120   36.8630 C.3       1 OBN        -0.0539
     19 C19         7.3710   11.0370   39.5680 C.3       1 OBN         0.0552
     20 C20         0.9680   13.8470   36.6910 C.2       1 OBN        -0.0064
     21 C21         0.9090   15.0200   35.7670 C.3       1 OBN         0.1204
     22 C22         0.2770   12.8560   36.0790 C.2       1 OBN         0.0017
     23 C23        -0.3010   13.3270   34.8260 C.2       1 OBN         0.2187
     24 C1'         5.7480    8.9910   45.3530 C.3       1 OBN         0.1881
     25 C2'         6.9180    8.3560   46.1130 C.3       1 OBN         0.1341
     26 C3'         7.6650    9.4740   46.8850 C.3       1 OBN         0.1140
     27 C4'         6.7460   10.1000   47.9390 C.3       1 OBN         0.1095
     28 C5'         5.3560   10.4590   47.3760 C.3       1 OBN         0.0873
     29 C6'         4.3480   10.5060   48.5180 C.3       1 OBN        -0.0361
     30 O1          8.1270   11.0920   42.3910 O.3       1 OBN        -0.3910
     31 O3          6.2900   10.0080   44.4710 O.3       1 OBN        -0.3452
     32 O5          7.1160    8.8120   41.3820 O.3       1 OBN        -0.3878
     33 O11         5.8710   14.3020   40.4540 O.3       1 OBN        -0.3915
     34 O14         2.4330   11.0510   37.5190 O.3       1 OBN        -0.3875
     35 O19         8.2330   12.1910   39.4660 O.3       1 OBN        -0.3943
     36 O21         0.0120   14.6140   34.6910 O.3       1 OBN        -0.2665
     37 O23        -1.0190   12.7690   33.9960 O.2       1 OBN        -0.3870
     38 O2'         6.3600    7.3530   46.9950 O.3       1 OBN        -0.3841
     39 O3'         8.9210    9.0670   47.4780 O.3       1 OBN        -0.3864
     40 O4'         7.3720   11.3310   48.3140 O.3       1 OBN        -0.3866
     41 O5'         4.8580    9.4940   46.3940 O.3       1 OBN        -0.3431
     42 H1          7.3040   12.8464   41.6678 H         1 OBN         0.0601
     43 H2          5.1106   12.5705   42.7059 H         1 OBN         0.0315
     44 H3          6.4328   12.4767   43.9182 H         1 OBN         0.0315
     45 H4          4.4912   10.8316   44.0876 H         1 OBN         0.0599
     46 H5          4.0344    9.9934   42.0417 H         1 OBN         0.0318
     47 H6          5.0031    8.6691   42.7728 H         1 OBN         0.0318
     48 H7          5.0125    7.9568   40.1545 H         1 OBN         0.0293
     49 H8          5.8146    9.0958   39.0205 H         1 OBN         0.0293
     50 H9          3.3078    9.7765   40.6510 H         1 OBN         0.0270
     51 H10         3.2779    9.1891   38.9538 H         1 OBN         0.0270
     52 H11         4.8260   11.0087   38.3520 H         1 OBN         0.0332
     53 H12         4.3686   12.0713   41.1307 H         1 OBN         0.0337
     54 H13         5.7142   13.2801   38.7046 H         1 OBN         0.0596
     55 H14         4.0300   15.0789   38.8809 H         1 OBN         0.0299
     56 H15         3.1822   14.1235   40.1439 H         1 OBN         0.0299
     57 H16         2.0473   12.0768   40.5964 H         1 OBN         0.0295
     58 H17         1.0993   11.0169   39.4989 H         1 OBN         0.0295
     59 H18         0.6972   13.8068   39.9715 H         1 OBN         0.0301
     60 H19        -0.0919   12.7971   38.7127 H         1 OBN         0.0301
     61 H20         1.7019   14.9326   38.3223 H         1 OBN         0.0549
     62 H21         4.8639   12.9891   37.0089 H         1 OBN         0.0238
     63 H22         3.9448   14.4703   36.5757 H         1 OBN         0.0238
     64 H23         3.3396   12.8571   36.0678 H         1 OBN         0.0238
     65 H24         6.8535   10.9013   38.6069 H         1 OBN         0.0564
     66 H25         7.9925   10.1540   39.7777 H         1 OBN         0.0564
     67 H26         1.9089   15.2490   35.3699 H         1 OBN         0.0859
     68 H27         0.5107   15.9026   36.2889 H         1 OBN         0.0859
     69 H28         0.1679   11.8453   36.4695 H         1 OBN         0.0295
     70 H29         5.2182    8.2403   44.7482 H         1 OBN         0.0937
     71 H30         7.6138    7.8768   45.4086 H         1 OBN         0.0671
     72 H31         7.9047   10.2569   46.1505 H         1 OBN         0.0648
     73 H32         6.6398    9.4245   48.8006 H         1 OBN         0.0646
     74 H33         5.4198   11.4481   46.8989 H         1 OBN         0.0621
     75 H34         3.3549   10.7619   48.1202 H         1 OBN         0.0255
     76 H35         4.6574   11.2674   49.2491 H         1 OBN         0.0255
     77 H36         4.3040    9.5227   49.0090 H         1 OBN         0.0255
     78 H37         7.8642   10.2086   42.6213 H         1 OBN         0.2098
     79 H38         7.6109    9.1751   42.1071 H         1 OBN         0.2102
     80 H39         6.6963   13.9019   40.7014 H         1 OBN         0.2098
     81 H40         3.0660   11.1011   36.8125 H         1 OBN         0.2102
     82 H41         8.6932   12.3147   40.2878 H         1 OBN         0.2094
     83 H42         5.7419    7.7633   47.5884 H         1 OBN         0.2101
     84 H43         9.3539    9.8255   47.8520 H         1 OBN         0.2100
     85 H44         8.2352   11.1512   48.6674 H         1 OBN         0.2100
@<TRIPOS>BOND
     1    2    1 1  
     2    1   10 1  
     3    1   30 1  
     4    3    2 1  
     5    3    4 1  
     6   31    3 1  
     7    4    5 1  
     8    5    6 1  
     9    5   10 1  
    10    5   32 1  
    11    6    7 1  
    12    7    8 1  
    13    9    8 1  
    14    8   14 1  
    15   10    9 1  
    16    9   11 1  
    17   10   19 1  
    18   11   12 1  
    19   11   33 1  
    20   12   13 1  
    21   14   13 1  
    22   13   17 1  
    23   13   18 1  
    24   14   15 1  
    25   14   34 1  
    26   15   16 1  
    27   17   16 1  
    28   17   20 1  
    29   19   35 1  
    30   20   21 1  
    31   20   22 2  
    32   21   36 1  
    33   22   23 1  
    34   23   36 1  
    35   23   37 2  
    36   24   25 1  
    37   24   31 1  
    38   24   41 1  
    39   25   26 1  
    40   25   38 1  
    41   26   27 1  
    42   26   39 1  
    43   27   28 1  
    44   27   40 1  
    45   28   29 1  
    46   28   41 1  
    47    1   42 1  
    48    2   43 1  
    49    2   44 1  
    50    3   45 1  
    51    4   46 1  
    52    4   47 1  
    53    6   48 1  
    54    6   49 1  
    55    7   50 1  
    56    7   51 1  
    57    8   52 1  
    58    9   53 1  
    59   11   54 1  
    60   12   55 1  
    61   12   56 1  
    62   15   57 1  
    63   15   58 1  
    64   16   59 1  
    65   16   60 1  
    66   17   61 1  
    67   18   62 1  
    68   18   63 1  
    69   18   64 1  
    70   19   65 1  
    71   19   66 1  
    72   21   67 1  
    73   21   68 1  
    74   22   69 1  
    75   24   70 1  
    76   25   71 1  
    77   26   72 1  
    78   27   73 1  
    79   28   74 1  
    80   29   75 1  
    81   29   76 1  
    82   29   77 1  
    83   30   78 1  
    84   32   79 1  
    85   33   80 1  
    86   34   81 1  
    87   35   82 1  
    88   38   83 1  
    89   39   84 1  
    90   40   85 1  
@<TRIPOS>SUBSTRUCTURE
     1 OBN         1

