### 
### Created by X-TOOL on Mon Sep 10 21:12:45 2018
### 

@<TRIPOS>MOLECULE
1ida_ligand
  105   109     1     0     0
SMALL
GAST_HUCK


@<TRIPOS>ATOM
      1 N1         47.8780   24.8580    8.9010 N.ar      1 0PO        -0.2737
      2 C2         48.9630   25.5910    9.2450 C.ar      1 0PO         0.1219
      3 C3         48.6900   26.8800    9.6820 C.ar      1 0PO        -0.0136
      4 C4         47.3710   27.3240    9.7940 C.ar      1 0PO        -0.0314
      5 C5         44.9760   26.9170    9.5120 C.ar      1 0PO        -0.0444
      6 C6         43.9390   26.0770    9.1660 C.ar      1 0PO        -0.0546
      7 C7         44.2400   24.8150    8.7260 C.ar      1 0PO        -0.0545
      8 C8         45.5720   24.4010    8.5860 C.ar      1 0PO        -0.0370
      9 C9         46.3170   26.4950    9.4140 C.ar      1 0PO         0.0097
     10 C10        46.5990   25.2460    8.9670 C.ar      1 0PO         0.0527
     11 C          50.3060   25.1110    9.0520 C.2       1 0PO         0.2292
     12 O1         51.3430   25.7060    9.4470 O.2       1 0PO        -0.3762
     13 N          50.3850   23.9520    8.3540 N.am      1 0PO        -0.2619
     14 CA         51.6110   23.2770    7.9600 C.3       1 0PO         0.1330
     15 C          51.5490   23.1620    6.4610 C.2       1 0PO         0.2024
     16 O          50.9440   22.2480    5.9090 O.2       1 0PO        -0.3945
     17 CB         51.9010   21.9640    8.6910 C.3       1 0PO        -0.0063
     18 CG1        53.1100   21.2670    8.0860 C.3       1 0PO        -0.0584
     19 CG2        52.1190   22.2390   10.1900 C.3       1 0PO        -0.0584
     20 C1         53.5850   23.4420    2.3560 C.3       1 0PO        -0.0008
     21 C2         53.4760   23.8610    3.8000 C.3       1 0PO         0.1194
     22 C3         52.0770   24.1240    4.3100 C.3       1 0PO         0.0823
     23 C4         51.4160   25.4160    3.7840 C.3       1 0PO         0.0066
     24 C1'        50.0830   25.6760    4.4390 C.ar      1 0PO        -0.0408
     25 C2'        48.9840   24.8750    4.1350 C.ar      1 0PO        -0.0603
     26 C3'        47.7280   25.0780    4.7250 C.ar      1 0PO        -0.0686
     27 C4'        47.5730   26.0640    5.6970 C.ar      1 0PO        -0.0687
     28 C5'        48.6470   26.9110    5.9710 C.ar      1 0PO        -0.0686
     29 C6'        49.8930   26.7020    5.3640 C.ar      1 0PO        -0.0603
     30 O2         54.3140   25.0130    3.9610 O.3       1 0PO        -0.3840
     31 N3         52.0990   24.1560    5.7720 N.am      1 0PO        -0.2773
     32 N1         53.4340   22.0090    2.2870 N.4       1 0PO         0.2561
     33 C2         52.9690   21.5890    0.9340 C.3       1 0PO         0.0696
     34 C3         52.8120   20.0880    0.9100 C.3       1 0PO         0.0202
     35 C4         53.8300   19.2190    1.6500 C.3       1 0PO         0.0195
     36 C5         54.0890   19.7600    3.0150 C.3       1 0PO        -0.0001
     37 C6         54.5560   21.1930    2.8130 C.3       1 0PO        -0.0287
     38 C          51.6990   22.2850    0.4860 C.2       1 0PO         0.2251
     39 O          50.7620   22.3690    1.3240 O.2       1 0PO        -0.3909
     40 N          51.7940   22.7030   -0.8470 N.am      1 0PO        -0.2771
     41 C1'        50.7680   23.3700   -1.5610 C.3       1 0PO         0.0448
     42 C2'        51.2960   23.7250   -2.9430 C.3       1 0PO        -0.0396
     43 C3'        50.3780   24.6280   -0.8370 C.3       1 0PO        -0.0396
     44 C4'        49.5390   22.4760   -1.7710 C.3       1 0PO        -0.0396
     45 N1         54.8030   15.2850   -1.5790 N.ar      1 0PO        -0.3044
     46 C2         54.1660   16.3480   -1.0320 C.ar      1 0PO         0.0133
     47 C3         52.7850   16.2890   -0.7470 C.ar      1 0PO        -0.0052
     48 C4         52.0640   15.1290   -0.9970 C.ar      1 0PO        -0.0397
     49 C5         52.7490   14.0460   -1.5650 C.ar      1 0PO        -0.0404
     50 C6         54.1210   14.1720   -1.8590 C.ar      1 0PO         0.0042
     51 C          52.1960   17.4370   -0.0230 C.3       1 0PO         0.0339
     52 S          53.1650   17.5350    1.5340 S.3       1 0PO        -0.1416
     53 H1         49.5060   27.5461    9.9379 H         1 0PO         0.0729
     54 H2         47.1660   28.3168   10.1778 H         1 0PO         0.0774
     55 H3         44.7563   27.9181    9.8651 H         1 0PO         0.0657
     56 H4         42.9093   26.4074    9.2404 H         1 0PO         0.0652
     57 H5         43.4378   24.1277    8.4830 H         1 0PO         0.0657
     58 H6         45.7967   23.4212    8.1802 H         1 0PO         0.0653
     59 H7         49.5226   23.5225    8.0859 H         1 0PO         0.1881
     60 H8         52.4487   23.9458    8.2067 H         1 0PO         0.0803
     61 H9         51.0293   21.3023    8.5806 H         1 0PO         0.0343
     62 H10        53.2997   20.3275    8.6258 H         1 0PO         0.0234
     63 H11        53.9901   21.9216    8.1688 H         1 0PO         0.0234
     64 H12        52.9145   21.0477    7.0260 H         1 0PO         0.0234
     65 H13        51.2325   22.7425   10.6031 H         1 0PO         0.0234
     66 H14        53.0007   22.8837   10.3201 H         1 0PO         0.0234
     67 H15        52.2794   21.2874   10.7179 H         1 0PO         0.0234
     68 H16        54.5686   23.7318    1.9579 H         1 0PO         0.0841
     69 H17        52.7933   23.9281    1.7670 H         1 0PO         0.0841
     70 H18        53.8858   23.0445    4.4127 H         1 0PO         0.0672
     71 H19        51.4478   23.2809    3.9886 H         1 0PO         0.0606
     72 H20        51.2657   25.3214    2.6984 H         1 0PO         0.0449
     73 H21        52.0840   26.2655    3.9891 H         1 0PO         0.0449
     74 H22        49.1037   24.0693    3.4197 H         1 0PO         0.0557
     75 H23        46.8815   24.4704    4.4261 H         1 0PO         0.0599
     76 H24        46.6354   26.1710    6.2304 H         1 0PO         0.0559
     77 H25        48.5168   27.7381    6.6594 H         1 0PO         0.0599
     78 H26        50.7241   27.3498    5.6183 H         1 0PO         0.0557
     79 H27        53.9462   25.7413    3.4744 H         1 0PO         0.2101
     80 H28        52.5262   24.9228    6.2511 H         1 0PO         0.1857
     81 H29        52.6671   21.8024    2.9077 H         1 0PO         0.2056
     82 H30        53.7561   21.8592    0.2147 H         1 0PO         0.1100
     83 H31        52.8334   19.7795   -0.1456 H         1 0PO         0.0356
     84 H32        51.8245   19.8613    1.3383 H         1 0PO         0.0356
     85 H33        54.7887   19.2426    1.1113 H         1 0PO         0.0419
     86 H34        54.8694   19.1706    3.5186 H         1 0PO         0.0328
     87 H35        53.1681   19.7388    3.6162 H         1 0PO         0.0328
     88 H36        54.8921   21.6081    3.7746 H         1 0PO         0.0815
     89 H37        55.3894   21.2093    2.0952 H         1 0PO         0.0815
     90 H38        52.6492   22.5170   -1.3308 H         1 0PO         0.1859
     91 H39        50.5116   24.2445   -3.5129 H         1 0PO         0.0254
     92 H40        51.5855   22.8052   -3.4723 H         1 0PO         0.0254
     93 H41        52.1726   24.3820   -2.8430 H         1 0PO         0.0254
     94 H42        49.5815   25.1409   -1.3961 H         1 0PO         0.0254
     95 H43        51.2527   25.2899   -0.7546 H         1 0PO         0.0254
     96 H44        50.0142   24.3740    0.1695 H         1 0PO         0.0254
     97 H45        48.7711   23.0333   -2.3275 H         1 0PO         0.0254
     98 H46        49.1354   22.1720   -0.7939 H         1 0PO         0.0254
     99 H47        49.8293   21.5819   -2.3422 H         1 0PO         0.0254
    100 H48        54.7219   17.2520   -0.8112 H         1 0PO         0.0765
    101 H49        51.0080   15.0632   -0.7611 H         1 0PO         0.0678
    102 H50        52.2275   13.1194   -1.7762 H         1 0PO         0.0693
    103 H51        54.6378   13.3414   -2.3260 H         1 0PO         0.0767
    104 H52        51.1318   17.2587    0.1907 H         1 0PO         0.0554
    105 H53        52.3026   18.3628   -0.6074 H         1 0PO         0.0554
@<TRIPOS>BOND
     1   14   13 1  
     2   14   17 1  
     3   15   14 1  
     4   15   16 2  
     5   17   19 1  
     6   17   18 1  
     7    2    1 ar 
     8    1   10 ar 
     9    2    3 ar 
    10   11    2 1  
    11    3    4 ar 
    12    4    9 ar 
    13    5    6 ar 
    14    9    5 ar 
    15    7    6 ar 
    16    8    7 ar 
    17   10    8 ar 
    18   10    9 ar 
    19   11   12 2  
    20   13   11 am 
    21   20   21 1  
    22   32   20 1  
    23   21   22 1  
    24   21   30 1  
    25   22   23 1  
    26   22   31 1  
    27   23   24 1  
    28   24   25 ar 
    29   24   29 ar 
    30   25   26 ar 
    31   26   27 ar 
    32   28   27 ar 
    33   29   28 ar 
    34   31   15 am 
    35   33   32 1  
    36   37   32 1  
    37   34   33 1  
    38   33   38 1  
    39   35   34 1  
    40   35   36 1  
    41   36   37 1  
    42   38   39 2  
    43   38   40 am 
    44   40   41 1  
    45   41   42 1  
    46   41   43 1  
    47   41   44 1  
    48   46   45 ar 
    49   45   50 ar 
    50   47   46 ar 
    51   47   48 ar 
    52   51   47 1  
    53   48   49 ar 
    54   49   50 ar 
    55   52   51 1  
    56   52   35 1  
    57    3   53 1  
    58    4   54 1  
    59    5   55 1  
    60    6   56 1  
    61    7   57 1  
    62    8   58 1  
    63   13   59 1  
    64   14   60 1  
    65   17   61 1  
    66   18   62 1  
    67   18   63 1  
    68   18   64 1  
    69   19   65 1  
    70   19   66 1  
    71   19   67 1  
    72   20   68 1  
    73   20   69 1  
    74   21   70 1  
    75   22   71 1  
    76   23   72 1  
    77   23   73 1  
    78   25   74 1  
    79   26   75 1  
    80   27   76 1  
    81   28   77 1  
    82   29   78 1  
    83   30   79 1  
    84   31   80 1  
    85   32   81 1  
    86   33   82 1  
    87   34   83 1  
    88   34   84 1  
    89   35   85 1  
    90   36   86 1  
    91   36   87 1  
    92   37   88 1  
    93   37   89 1  
    94   40   90 1  
    95   42   91 1  
    96   42   92 1  
    97   42   93 1  
    98   43   94 1  
    99   43   95 1  
   100   43   96 1  
   101   44   97 1  
   102   44   98 1  
   103   44   99 1  
   104   46  100 1  
   105   48  101 1  
   106   49  102 1  
   107   50  103 1  
   108   51  104 1  
   109   51  105 1  
@<TRIPOS>SUBSTRUCTURE
     1 0PO         1

