### 
### Created by X-TOOL on Mon Sep 10 21:12:45 2018
### 

@<TRIPOS>MOLECULE
1idb_ligand
   93    96     1     0     0
SMALL
GAST_HUCK


@<TRIPOS>ATOM
      1 C1         51.1430   22.6980    6.1460 C.2       1 0DO         0.2068
      2 C2         51.1180   22.3530    7.6270 C.3       1 0DO         0.1556
      3 C1'        51.8080   23.4450    9.5920 C.ar      1 0DO         0.0966
      4 C2'        51.0830   24.5550   10.0580 C.ar      1 0DO        -0.0230
      5 C3'        50.9170   24.7950   11.4230 C.ar      1 0DO        -0.0759
      6 C4'        51.5210   23.9480   12.3540 C.ar      1 0DO        -0.0862
      7 C5'        52.2960   22.8820   11.8850 C.ar      1 0DO        -0.0759
      8 C6'        52.4470   22.6120   10.5190 C.ar      1 0DO        -0.0230
      9 CM2        50.4320   25.5230    9.1400 C.3       1 0DO        -0.0348
     10 CM6        53.2980   21.4380   10.0390 C.3       1 0DO        -0.0348
     11 O1         50.5640   21.9530    5.3520 O.2       1 0DO        -0.3941
     12 O1'        52.0310   23.2320    8.2970 O.3       1 0DO        -0.3054
     13 CM         53.5280   23.7020    2.3730 C.3       1 0DO        -0.0008
     14 N          51.8320   23.8140    5.7720 N.am      1 0DO        -0.2770
     15 CA         51.8550   24.1220    4.3450 C.3       1 0DO         0.0823
     16 CB         51.1290   25.4530    4.0720 C.3       1 0DO         0.0066
     17 CG         49.7000   25.5220    4.6140 C.ar      1 0DO        -0.0408
     18 CD1        48.5980   25.0420    3.8910 C.ar      1 0DO        -0.0603
     19 CD2        49.4250   26.0910    5.8610 C.ar      1 0DO        -0.0603
     20 CE1        47.2950   25.1260    4.3990 C.ar      1 0DO        -0.0686
     21 CE2        48.1260   26.2070    6.3730 C.ar      1 0DO        -0.0686
     22 CZ         47.0520   25.6940    5.6490 C.ar      1 0DO        -0.0687
     23 C          53.2910   23.9880    3.8410 C.3       1 0DO         0.1194
     24 O          54.0460   25.1400    4.1170 O.3       1 0DO        -0.3840
     25 N1         53.3200   22.3030    2.2360 N.4       1 0DO         0.2561
     26 C2         52.8000   21.8460    0.9150 C.3       1 0DO         0.0703
     27 C3         52.7210   20.3510    0.9320 C.3       1 0DO         0.0309
     28 C4         53.8730   19.6370    1.5380 C.3       1 0DO         0.0956
     29 C5         54.0400   20.1140    2.9080 C.3       1 0DO         0.0106
     30 C6         54.4860   21.5480    2.7080 C.3       1 0DO        -0.0279
     31 C          51.4940   22.4250    0.4390 C.2       1 0DO         0.2251
     32 O          50.4700   22.2930    1.1750 O.2       1 0DO        -0.3909
     33 N          51.6590   22.9310   -0.8410 N.am      1 0DO        -0.2771
     34 C1'        50.6210   23.5830   -1.5330 C.3       1 0DO         0.0448
     35 C2'        51.0970   24.0740   -2.9210 C.3       1 0DO        -0.0396
     36 C3'        50.1750   24.8210   -0.7520 C.3       1 0DO        -0.0396
     37 C4'        49.4350   22.6290   -1.7240 C.3       1 0DO        -0.0396
     38 N1         52.4810   16.2210   -2.6200 N.ar      1 0DO        -0.2963
     39 C2         53.5640   17.0150   -2.4900 C.ar      1 0DO         0.0133
     40 C3         53.8810   17.5600   -1.2280 C.ar      1 0DO        -0.0084
     41 C4         53.0890   17.2690   -0.1380 C.ar      1 0DO         0.1084
     42 C5         51.9870   16.4390   -0.3170 C.ar      1 0DO        -0.0084
     43 C6         51.7110   15.9250   -1.5840 C.ar      1 0DO         0.0133
     44 S          53.4470   17.9190    1.3870 S.o2      1 0DO         0.0069
     45 O1S        52.2630   17.5810    2.0750 O.2       1 0DO        -0.1675
     46 O2S        54.2500   17.1960    2.2840 O.2       1 0DO        -0.1675
     47 H1         51.4292   21.3081    7.7732 H         1 0DO         0.0853
     48 H2         50.1028   22.4926    8.0267 H         1 0DO         0.0853
     49 H3         50.3213   25.6360   11.7589 H         1 0DO         0.0471
     50 H4         51.3922   24.1128   13.4176 H         1 0DO         0.0489
     51 H5         52.7968   22.2431   12.6034 H         1 0DO         0.0471
     52 H6         50.6317   25.2316    8.0983 H         1 0DO         0.0366
     53 H7         50.8353   26.5299    9.3228 H         1 0DO         0.0366
     54 H8         49.3466   25.5247    9.3185 H         1 0DO         0.0366
     55 H9         53.2858   21.4016    8.9397 H         1 0DO         0.0366
     56 H10        52.8887   20.4997   10.4415 H         1 0DO         0.0366
     57 H11        54.3324   21.5672   10.3901 H         1 0DO         0.0366
     58 H12        54.5557   23.9704    2.0872 H         1 0DO         0.0841
     59 H13        52.8158   24.2622    1.7494 H         1 0DO         0.0841
     60 H14        52.2981   24.3923    6.4416 H         1 0DO         0.1858
     61 H15        51.2719   23.3472    3.8258 H         1 0DO         0.0606
     62 H16        51.0907   25.6059    2.9834 H         1 0DO         0.0449
     63 H17        51.7113   26.2628    4.5358 H         1 0DO         0.0449
     64 H18        48.7583   24.5956    2.9163 H         1 0DO         0.0557
     65 H19        50.2523   26.4582    6.4574 H         1 0DO         0.0557
     66 H20        46.4661   24.7450    3.8134 H         1 0DO         0.0599
     67 H21        47.9576   26.6932    7.3271 H         1 0DO         0.0599
     68 H22        46.0458   25.7357    6.0501 H         1 0DO         0.0559
     69 H23        53.7246   23.1477    4.4030 H         1 0DO         0.0672
     70 H24        54.9307   25.0230    3.7912 H         1 0DO         0.2101
     71 H25        52.5804   22.0855    2.8854 H         1 0DO         0.2056
     72 H26        53.5527   22.1371    0.1675 H         1 0DO         0.1100
     73 H27        52.6250   20.0088   -0.1090 H         1 0DO         0.0364
     74 H28        51.8189   20.0697    1.4951 H         1 0DO         0.0364
     75 H29        54.7986   19.8374    0.9784 H         1 0DO         0.0547
     76 H30        54.8057   19.5309    3.4407 H         1 0DO         0.0336
     77 H31        53.0914   20.0672    3.4630 H         1 0DO         0.0336
     78 H32        54.8463   21.9667    3.6592 H         1 0DO         0.0815
     79 H33        55.2912   21.5914    1.9598 H         1 0DO         0.0815
     80 H34        52.5473   22.8292   -1.2888 H         1 0DO         0.1859
     81 H35        50.2661   24.5780   -3.4364 H         1 0DO         0.0254
     82 H36        51.4316   23.2138   -3.5193 H         1 0DO         0.0254
     83 H37        51.9315   24.7793   -2.7941 H         1 0DO         0.0254
     84 H38        49.3641   25.3261   -1.2973 H         1 0DO         0.0254
     85 H39        51.0254   25.5095   -0.6393 H         1 0DO         0.0254
     86 H40        49.8147   24.5174    0.2420 H         1 0DO         0.0254
     87 H41        48.6303   23.1482   -2.2653 H         1 0DO         0.0254
     88 H42        49.0646   22.3031   -0.7409 H         1 0DO         0.0254
     89 H43        49.7596   21.7517   -2.3028 H         1 0DO         0.0254
     90 H44        54.1868   17.2329   -3.3501 H         1 0DO         0.0828
     91 H45        54.7446   18.2055   -1.1158 H         1 0DO         0.0732
     92 H46        51.3470   16.1933    0.5227 H         1 0DO         0.0732
     93 H47        50.8549   15.2746   -1.7225 H         1 0DO         0.0828
@<TRIPOS>BOND
     1    1    2 1  
     2    1   11 2  
     3    2   12 1  
     4    3    4 ar 
     5    3    8 ar 
     6   12    3 1  
     7    4    5 ar 
     8    4    9 1  
     9    5    6 ar 
    10    7    6 ar 
    11    8    7 ar 
    12    8   10 1  
    13   23   13 1  
    14   13   25 1  
    15   14   15 1  
    16   15   16 1  
    17   15   23 1  
    18   16   17 1  
    19   17   18 ar 
    20   17   19 ar 
    21   18   20 ar 
    22   19   21 ar 
    23   20   22 ar 
    24   21   22 ar 
    25   23   24 1  
    26   25   26 1  
    27   25   30 1  
    28   26   27 1  
    29   26   31 1  
    30   27   28 1  
    31   29   28 1  
    32   30   29 1  
    33   31   32 2  
    34   31   33 am 
    35   33   34 1  
    36   34   35 1  
    37   34   36 1  
    38   34   37 1  
    39   39   38 ar 
    40   43   38 ar 
    41   40   39 ar 
    42   41   40 ar 
    43   41   42 ar 
    44   44   41 1  
    45   42   43 ar 
    46   28   44 1  
    47   44   45 2  
    48   44   46 2  
    49   14    1 am 
    50    2   47 1  
    51    2   48 1  
    52    5   49 1  
    53    6   50 1  
    54    7   51 1  
    55    9   52 1  
    56    9   53 1  
    57    9   54 1  
    58   10   55 1  
    59   10   56 1  
    60   10   57 1  
    61   13   58 1  
    62   13   59 1  
    63   14   60 1  
    64   15   61 1  
    65   16   62 1  
    66   16   63 1  
    67   18   64 1  
    68   19   65 1  
    69   20   66 1  
    70   21   67 1  
    71   22   68 1  
    72   23   69 1  
    73   24   70 1  
    74   25   71 1  
    75   26   72 1  
    76   27   73 1  
    77   27   74 1  
    78   28   75 1  
    79   29   76 1  
    80   29   77 1  
    81   30   78 1  
    82   30   79 1  
    83   33   80 1  
    84   35   81 1  
    85   35   82 1  
    86   35   83 1  
    87   36   84 1  
    88   36   85 1  
    89   36   86 1  
    90   37   87 1  
    91   37   88 1  
    92   37   89 1  
    93   39   90 1  
    94   40   91 1  
    95   42   92 1  
    96   43   93 1  
@<TRIPOS>SUBSTRUCTURE
     1 0DO         1

