### 
### Created by X-TOOL on Mon Sep 10 21:12:48 2018
### 

@<TRIPOS>MOLECULE
1ie9_ligand
   74    76     1     0     0
SMALL
GAST_HUCK


@<TRIPOS>ATOM
      1 O2         16.9800   17.5100   34.6530 O.3       1 VDX        -0.3898
      2 O3          4.6030   26.3090   34.8340 O.3       1 VDX        -0.3891
      3 C1         14.1900   17.4070   35.5340 C.3       1 VDX         0.0864
      4 C2         14.8850   16.3260   34.6780 C.3       1 VDX         0.0102
      5 C3         15.9770   17.0020   33.7970 C.3       1 VDX         0.0660
      6 C4         15.3640   18.1640   33.0050 C.3       1 VDX        -0.0024
      7 C5         14.5540   19.1610   33.7870 C.2       1 VDX        -0.0535
      8 C6         14.7020   20.4720   33.4950 C.2       1 VDX        -0.0886
      9 C7         14.0990   21.6380   34.1650 C.2       1 VDX        -0.0795
     10 C8         13.8420   22.8600   33.6810 C.2       1 VDX        -0.0477
     11 C9         14.1920   23.3060   32.2700 C.3       1 VDX        -0.0111
     12 C10        13.6120   18.5750   34.7620 C.2       1 VDX        -0.0401
     13 C11        12.8740   23.6780   31.5580 C.3       1 VDX        -0.0386
     14 C12        12.0280   24.6670   32.4050 C.3       1 VDX        -0.0421
     15 C13        11.7400   24.1920   33.8560 C.3       1 VDX        -0.0125
     16 C14        13.1630   23.9190   34.4800 C.3       1 VDX         0.0059
     17 C15        12.9450   23.7500   35.9730 C.3       1 VDX        -0.0357
     18 C16        11.7720   24.7360   36.1940 C.3       1 VDX        -0.0465
     19 C17        11.2500   25.2820   34.8340 C.3       1 VDX        -0.0301
     20 C18        10.8410   22.9170   33.8900 C.3       1 VDX        -0.0565
     21 C19        12.2960   18.9620   34.8400 C.2       1 VDX        -0.1221
     22 C20         9.7230   25.5380   34.9110 C.3       1 VDX        -0.0403
     23 C21         9.4280   26.5180   36.1020 C.3       1 VDX        -0.0621
     24 C22         9.0600   25.8970   33.6160 C.3       1 VDX        -0.0501
     25 C23         7.4920   26.0950   33.8050 C.3       1 VDX        -0.0502
     26 C24         6.5730   24.9620   34.2050 C.3       1 VDX        -0.0245
     27 C25         5.0440   25.2150   34.0620 C.3       1 VDX         0.0605
     28 C26         4.6470   25.4180   32.6280 C.3       1 VDX        -0.0363
     29 C27         4.2480   24.0530   34.6660 C.3       1 VDX        -0.0363
     30 O1         13.2270   16.8630   36.4060 O.3       1 VDX        -0.3798
     31 H1         17.3582   16.7969   35.1539 H         1 VDX         0.2100
     32 H2          5.0574   27.0954   34.5554 H         1 VDX         0.2101
     33 H3         14.9810   17.8307   36.1703 H         1 VDX         0.0751
     34 H4         14.1431   15.8333   34.0324 H         1 VDX         0.0338
     35 H5         15.3525   15.5786   35.3359 H         1 VDX         0.0338
     36 H6         16.4084   16.2654   33.1033 H         1 VDX         0.0615
     37 H7         14.7081   17.7329   32.2343 H         1 VDX         0.0412
     38 H8         16.1880   18.7096   32.5219 H         1 VDX         0.0412
     39 H9         15.3538   20.6970   32.6521 H         1 VDX         0.0472
     40 H10        13.8217   21.4832   35.2067 H         1 VDX         0.0303
     41 H11        14.6915   22.4876   31.7309 H         1 VDX         0.0491
     42 H12        14.8580   24.1807   32.3074 H         1 VDX         0.0491
     43 H13        12.2889   22.7622   31.3881 H         1 VDX         0.0296
     44 H14        13.1101   24.1469   30.5914 H         1 VDX         0.0296
     45 H15        11.0648   24.8182   31.8958 H         1 VDX         0.0275
     46 H16        12.5689   25.6234   32.4579 H         1 VDX         0.0275
     47 H17        13.7787   24.8227   34.3606 H         1 VDX         0.0531
     48 H18        13.8353   24.0407   36.5499 H         1 VDX         0.0299
     49 H19        12.6630   22.7180   36.2290 H         1 VDX         0.0299
     50 H20        12.1189   25.5774   36.8118 H         1 VDX         0.0270
     51 H21        10.9538   24.2139   36.7116 H         1 VDX         0.0270
     52 H22        11.7353   26.2372   34.5849 H         1 VDX         0.0311
     53 H23        11.2311   22.1742   33.1786 H         1 VDX         0.0237
     54 H24         9.8117   23.1865   33.6110 H         1 VDX         0.0237
     55 H25        10.8465   22.4914   34.9043 H         1 VDX         0.0237
     56 H26        11.9430   19.8121   34.2580 H         1 VDX         0.0191
     57 H27        11.6059   18.4187   35.4838 H         1 VDX         0.0191
     58 H28         9.2729   24.5754   35.1951 H         1 VDX         0.0301
     59 H29         8.3457   26.7049   36.1635 H         1 VDX         0.0233
     60 H30         9.9553   27.4686   35.9339 H         1 VDX         0.0233
     61 H31         9.7762   26.0669   37.0429 H         1 VDX         0.0233
     62 H32         9.2342   25.0906   32.8885 H         1 VDX         0.0268
     63 H33         9.4963   26.8331   33.2374 H         1 VDX         0.0268
     64 H34         7.1132   26.4707   32.8431 H         1 VDX         0.0266
     65 H35         7.3725   26.8717   34.5747 H         1 VDX         0.0266
     66 H36         6.7741   24.7272   35.2606 H         1 VDX         0.0293
     67 H37         6.8261   24.0921   33.5812 H         1 VDX         0.0293
     68 H38         4.9920   24.5634   32.0275 H         1 VDX         0.0257
     69 H39         5.1062   26.3424   32.2477 H         1 VDX         0.0257
     70 H40         3.5521   25.4968   32.5583 H         1 VDX         0.0257
     71 H41         4.5052   23.1208   34.1417 H         1 VDX         0.0257
     72 H42         3.1713   24.2501   34.5567 H         1 VDX         0.0257
     73 H43         4.4962   23.9540   35.7330 H         1 VDX         0.0257
     74 H44        12.4805   16.5602   35.9024 H         1 VDX         0.2129
@<TRIPOS>BOND
     1    5    1 1  
     2   27    2 1  
     3    3    4 1  
     4   12    3 1  
     5    3   30 1  
     6    5    4 1  
     7    6    5 1  
     8    7    6 1  
     9    8    7 2  
    10    7   12 1  
    11    9    8 1  
    12   10    9 2  
    13   10   11 1  
    14   16   10 1  
    15   13   11 1  
    16   12   21 2  
    17   14   13 1  
    18   15   14 1  
    19   15   16 1  
    20   19   15 1  
    21   15   20 1  
    22   17   16 1  
    23   18   17 1  
    24   19   18 1  
    25   22   19 1  
    26   22   23 1  
    27   24   22 1  
    28   25   24 1  
    29   26   25 1  
    30   26   27 1  
    31   27   28 1  
    32   27   29 1  
    33    1   31 1  
    34    2   32 1  
    35    3   33 1  
    36    4   34 1  
    37    4   35 1  
    38    5   36 1  
    39    6   37 1  
    40    6   38 1  
    41    8   39 1  
    42    9   40 1  
    43   11   41 1  
    44   11   42 1  
    45   13   43 1  
    46   13   44 1  
    47   14   45 1  
    48   14   46 1  
    49   16   47 1  
    50   17   48 1  
    51   17   49 1  
    52   18   50 1  
    53   18   51 1  
    54   19   52 1  
    55   20   53 1  
    56   20   54 1  
    57   20   55 1  
    58   21   56 1  
    59   21   57 1  
    60   22   58 1  
    61   23   59 1  
    62   23   60 1  
    63   23   61 1  
    64   24   62 1  
    65   24   63 1  
    66   25   64 1  
    67   25   65 1  
    68   26   66 1  
    69   26   67 1  
    70   28   68 1  
    71   28   69 1  
    72   28   70 1  
    73   29   71 1  
    74   29   72 1  
    75   29   73 1  
    76   30   74 1  
@<TRIPOS>SUBSTRUCTURE
     1 VDX         1

