### 
### Created by X-TOOL on Mon Sep 10 21:12:48 2018
### 

@<TRIPOS>MOLECULE
1iep_ligand
   70    74     1     0     0
SMALL
GAST_HUCK


@<TRIPOS>ATOM
      1 C1         11.8790   62.2720   12.5700 C.ar      1 STI        -0.0301
      2 C6         13.0020   61.4290   12.9100 C.ar      1 STI        -0.0291
      3 C5         13.0970   60.0700   12.3920 C.ar      1 STI         0.0316
      4 C4         12.0310   59.5910   11.5250 C.ar      1 STI         0.0248
      5 N3         10.9610   60.4250   11.2160 N.ar      1 STI        -0.2920
      6 C2         10.8580   61.7340   11.7100 C.ar      1 STI         0.0142
      7 C7         14.2380   59.1550   12.7120 C.ar      1 STI         0.0621
      8 C12        15.4330   59.5790   13.3830 C.ar      1 STI        -0.0153
      9 C11        16.4280   58.6030   13.6150 C.ar      1 STI         0.0146
     10 N10        16.2320   57.3030   13.2020 N.ar      1 STI        -0.2516
     11 C9         15.0670   56.9270   12.5590 C.ar      1 STI         0.2094
     12 N8         14.1010   57.8400   12.3270 N.ar      1 STI        -0.2455
     13 N13        14.8520   55.6270   12.1280 N.pl3     1 STI        -0.2475
     14 C14        15.8220   54.6410   12.3220 C.ar      1 STI         0.0547
     15 C19        16.9500   54.5020   11.3930 C.ar      1 STI        -0.0359
     16 C18        17.9150   53.4710   11.6480 C.ar      1 STI        -0.0821
     17 C17        17.7740   52.5970   12.7860 C.ar      1 STI        -0.0588
     18 C16        16.6780   52.7270   13.6880 C.ar      1 STI         0.0494
     19 C15        15.6980   53.7720   13.4360 C.ar      1 STI        -0.0244
     20 N21        16.6000   51.8100   14.7980 N.am      1 STI        -0.2404
     21 C22        15.6290   51.7470   15.7840 C.2       1 STI         0.2255
     22 C23        15.5950   50.5580   16.6890 C.ar      1 STI         0.0485
     23 C25        14.4230   50.2680   17.5190 C.ar      1 STI        -0.0479
     24 C26        14.4230   49.1240   18.3960 C.ar      1 STI        -0.0494
     25 C27        15.6000   48.2600   18.4460 C.ar      1 STI         0.0061
     26 C28        16.7470   48.5680   17.6080 C.ar      1 STI        -0.0494
     27 C29        16.7510   49.6890   16.7480 C.ar      1 STI        -0.0479
     28 C46        15.6960   47.0300   19.3680 C.3       1 STI         0.0045
     29 N48        16.9170   46.9070   20.2190 N.4       1 STI         0.2553
     30 C53        17.0970   48.1400   21.0700 C.3       1 STI         0.0110
     31 C52        18.3750   48.0410   21.9490 C.3       1 STI         0.0092
     32 N51        18.3370   46.7940   22.8210 N.4       1 STI         0.2405
     33 C54        19.5220   46.6550   23.6800 C.3       1 STI        -0.0427
     34 C50        18.1720   45.5330   21.9710 C.3       1 STI         0.0092
     35 C49        16.8770   45.6580   21.1040 C.3       1 STI         0.0110
     36 O29        14.7890   52.6120   15.9830 O.2       1 STI        -0.3771
     37 C20        17.1480   55.4060   10.1540 C.3       1 STI        -0.0402
     38 H1         11.8073   63.2836   12.9528 H         1 STI         0.0718
     39 H2         13.7826   61.8115   13.5576 H         1 STI         0.0773
     40 H3         12.0705   58.5861   11.1205 H         1 STI         0.0864
     41 H4         10.0033   62.3446   11.4421 H         1 STI         0.0847
     42 H5         15.5672   60.6071   13.6994 H         1 STI         0.0677
     43 H6         17.3476   58.8775   14.1190 H         1 STI         0.0893
     44 H7         13.9671   55.3856   11.6595 H         1 STI         0.2158
     45 H8         18.7585   53.3480   10.9783 H         1 STI         0.0490
     46 H9         18.5160   51.8259   12.9590 H         1 STI         0.0394
     47 H10        14.8582   53.8886   14.1115 H         1 STI         0.0399
     48 H11        17.3369   51.1373   14.8641 H         1 STI         0.2227
     49 H12        13.5543   50.9149   17.4735 H         1 STI         0.0652
     50 H13        13.5581   48.9069   19.0124 H         1 STI         0.0572
     51 H14        17.6181   47.9238   17.6436 H         1 STI         0.0572
     52 H15        17.6189   49.8980   16.1330 H         1 STI         0.0652
     53 H16        15.6453   46.1346   18.7311 H         1 STI         0.0991
     54 H17        14.8254   47.0517   20.0400 H         1 STI         0.0991
     55 H18        17.7136   46.8278   19.6064 H         1 STI         0.2053
     56 H19        16.2204   48.2541   21.7247 H         1 STI         0.0868
     57 H20        17.1814   49.0187   20.4136 H         1 STI         0.0868
     58 H21        18.4388   48.9299   22.5938 H         1 STI         0.0868
     59 H22        19.2592   47.9974   21.2960 H         1 STI         0.0868
     60 H23        17.5317   46.8726   23.4221 H         1 STI         0.2035
     61 H24        19.4331   45.7385   24.2818 H         1 STI         0.0778
     62 H25        19.5953   47.5262   24.3475 H         1 STI         0.0778
     63 H26        20.4242   46.5961   23.0535 H         1 STI         0.0778
     64 H27        18.0902   44.6550   22.6286 H         1 STI         0.0868
     65 H28        19.0452   45.4175   21.3121 H         1 STI         0.0868
     66 H29        16.7875   44.7681   20.4637 H         1 STI         0.0868
     67 H30        16.0043   45.7193   21.7707 H         1 STI         0.0868
     68 H31        16.3299   56.1394   10.1007 H         1 STI         0.0342
     69 H32        17.1456   54.7873    9.2445 H         1 STI         0.0342
     70 H33        18.1093   55.9344   10.2355 H         1 STI         0.0342
@<TRIPOS>BOND
     1    1    2 ar 
     2    1    6 ar 
     3    2    3 ar 
     4    3    4 ar 
     5    3    7 1  
     6    4    5 ar 
     7    5    6 ar 
     8    7    8 ar 
     9    7   12 ar 
    10    8    9 ar 
    11    9   10 ar 
    12   10   11 ar 
    13   11   12 ar 
    14   11   13 1  
    15   13   14 1  
    16   14   15 ar 
    17   14   19 ar 
    18   15   16 ar 
    19   15   37 1  
    20   16   17 ar 
    21   17   18 ar 
    22   18   19 ar 
    23   18   20 1  
    24   20   21 am 
    25   21   22 1  
    26   21   36 2  
    27   22   23 ar 
    28   22   27 ar 
    29   23   24 ar 
    30   24   25 ar 
    31   25   26 ar 
    32   25   28 1  
    33   26   27 ar 
    34   28   29 1  
    35   29   30 1  
    36   29   35 1  
    37   30   31 1  
    38   31   32 1  
    39   32   33 1  
    40   32   34 1  
    41   34   35 1  
    42    1   38 1  
    43    2   39 1  
    44    4   40 1  
    45    6   41 1  
    46    8   42 1  
    47    9   43 1  
    48   13   44 1  
    49   16   45 1  
    50   17   46 1  
    51   19   47 1  
    52   20   48 1  
    53   23   49 1  
    54   24   50 1  
    55   26   51 1  
    56   27   52 1  
    57   28   53 1  
    58   28   54 1  
    59   29   55 1  
    60   30   56 1  
    61   30   57 1  
    62   31   58 1  
    63   31   59 1  
    64   32   60 1  
    65   33   61 1  
    66   33   62 1  
    67   33   63 1  
    68   34   64 1  
    69   34   65 1  
    70   35   66 1  
    71   35   67 1  
    72   37   68 1  
    73   37   69 1  
    74   37   70 1  
@<TRIPOS>SUBSTRUCTURE
     1 STI         1

