### 
### Created by X-TOOL on Mon Sep 10 21:12:48 2018
### 

@<TRIPOS>MOLECULE
1iew_ligand
   22    22     1     0     0
SMALL
GAST_HUCK


@<TRIPOS>ATOM
      1 C1         26.2920   25.1690   35.8020 C.3       1 G2F         0.0818
      2 C2         25.2280   24.9670   36.8270 C.3       1 G2F         0.1523
      3 C3         24.2680   23.8750   36.3110 C.3       1 G2F         0.1166
      4 C4         23.6480   24.3810   35.0010 C.3       1 G2F         0.1120
      5 C5         24.7840   24.6150   33.9570 C.3       1 G2F         0.1100
      6 C6         24.2900   25.1740   32.5870 C.3       1 G2F         0.0729
      7 O3         23.2460   23.6530   37.2850 O.3       1 G2F        -0.3862
      8 O4         22.7320   23.4270   34.4640 O.3       1 G2F        -0.3865
      9 O5         25.7270   25.5710   34.5130 O.3       1 G2F        -0.3687
     10 O6         23.8910   26.5350   32.7080 O.3       1 G2F        -0.3924
     11 F2         25.8230   24.5700   38.0300 F         1 G2F        -0.2403
     12 H1         26.8456   24.2275   35.6713 H         1 G2F         0.0589
     13 H2         26.9798   25.9534   36.1508 H         1 G2F         0.0589
     14 H3         24.6736   25.9041   36.9834 H         1 G2F         0.0701
     15 H4         24.8181   22.9397   36.1304 H         1 G2F         0.0650
     16 H5         23.1188   25.3261   35.1925 H         1 G2F         0.0647
     17 H6         25.2924   23.6560   33.7784 H         1 G2F         0.0646
     18 H7         23.4330   24.5768   32.2422 H         1 G2F         0.0584
     19 H8         25.1062   25.1019   31.8531 H         1 G2F         0.0584
     20 H9         23.6405   23.3404   38.0907 H         1 G2F         0.2100
     21 H10        22.3658   23.7624   33.6541 H         1 G2F         0.2100
     22 H11        23.1836   26.6016   33.3387 H         1 G2F         0.2095
@<TRIPOS>BOND
     1    1    2 1  
     2    1    9 1  
     3    2    3 1  
     4    2   11 1  
     5    3    4 1  
     6    3    7 1  
     7    4    5 1  
     8    4    8 1  
     9    5    6 1  
    10    5    9 1  
    11    6   10 1  
    12    1   12 1  
    13    1   13 1  
    14    2   14 1  
    15    3   15 1  
    16    4   16 1  
    17    5   17 1  
    18    6   18 1  
    19    6   19 1  
    20    7   20 1  
    21    8   21 1  
    22   10   22 1  
@<TRIPOS>SUBSTRUCTURE
     1 G2F         1

