### 
### Created by X-TOOL on Mon Sep 10 21:12:48 2018
### 

@<TRIPOS>MOLECULE
1if7_ligand
   47    49     1     0     0
SMALL
GAST_HUCK


@<TRIPOS>ATOM
      1 C01        -1.4150    7.5700   12.4240 C.3       1 SBR         0.0561
      2 C02        -2.4830    6.7100   13.1760 C.3       1 SBR         0.0028
      3 C03        -2.9290    5.5870   12.2330 C.3       1 SBR         0.0354
      4 N04        -3.1040    4.2970   13.0760 N.am      1 SBR        -0.2858
      5 C05        -4.4140    4.2160   13.6600 C.2       1 SBR         0.2049
      6 O06        -5.2100    5.1280   13.4560 O.2       1 SBR        -0.3847
      7 C07        -4.7370    3.1110   14.4160 C.ar      1 SBR         0.0499
      8 C08        -3.8070    2.0420   14.6420 C.ar      1 SBR        -0.0401
      9 C09        -4.1770    0.8990   15.4200 C.ar      1 SBR        -0.0295
     10 C10        -5.5020    0.8150   15.9910 C.ar      1 SBR         0.1122
     11 C11        -6.3960    1.8940   15.7530 C.ar      1 SBR        -0.0295
     12 C12        -6.0180    3.0150   14.9830 C.ar      1 SBR        -0.0401
     13 S13        -6.0080   -0.3710   16.8450 S.o2      1 SBR         0.0677
     14 O14        -5.4510   -0.3090   18.1820 O.2       1 SBR        -0.1499
     15 O15        -7.4220   -0.2950   16.9430 O.2       1 SBR        -0.1499
     16 NP6        -5.6630   -1.6830   16.2030 N.am      1 SBR        -0.2605
     17 N17        -0.9680    8.6830   13.2440 N.pl3     1 SBR        -0.2653
     18 C18        -0.0340    8.5850   14.2160 C.2       1 SBR         0.0242
     19 C19         0.1420    9.9250   14.8090 C.2       1 SBR        -0.0638
     20 C20        -1.3740    9.9150   13.1760 C.ar      1 SBR         0.0659
     21 C21        -2.3340   10.5280   12.3300 C.ar      1 SBR        -0.0431
     22 C22        -2.6030   11.9090   12.4500 C.ar      1 SBR        -0.0764
     23 C23        -1.9160   12.6800   13.4200 C.ar      1 SBR        -0.0790
     24 C24        -0.9570   12.0700   14.2680 C.ar      1 SBR        -0.0752
     25 C25        -0.6860   10.6870   14.1470 C.ar      1 SBR        -0.0278
     26 C26        -1.8740    6.1190   14.4700 C.3       1 SBR        -0.0581
     27 H1         -0.5510    6.9352   12.1780 H         1 SBR         0.0605
     28 H2         -1.8578    7.9621   11.4965 H         1 SBR         0.0605
     29 H3         -3.3475    7.3379   13.4375 H         1 SBR         0.0344
     30 H4         -2.1662    5.4256   11.4571 H         1 SBR         0.0523
     31 H5         -3.8842    5.8553   11.7580 H         1 SBR         0.0523
     32 H6         -2.3917    3.6058   13.1981 H         1 SBR         0.1845
     33 H7         -2.8111    2.1008   14.2180 H         1 SBR         0.0670
     34 H8         -3.4647    0.0978   15.5806 H         1 SBR         0.0649
     35 H9         -7.3942    1.8550   16.1738 H         1 SBR         0.0649
     36 H10        -6.7302    3.8171   14.8264 H         1 SBR         0.0670
     37 H11        -5.9282   -2.5405   16.6439 H         1 SBR         0.1635
     38 H12        -5.1679   -1.6997   15.3343 H         1 SBR         0.1635
     39 H13         0.4944    7.6790   14.5093 H         1 SBR         0.0934
     40 H14         0.8122   10.2134   15.6174 H         1 SBR         0.0285
     41 H15        -2.8614    9.9357   11.5910 H         1 SBR         0.0544
     42 H16        -3.3337   12.3783   11.8012 H         1 SBR         0.0530
     43 H17        -2.1241   13.7397   13.5142 H         1 SBR         0.0515
     44 H18        -0.4321   12.6630   15.0082 H         1 SBR         0.0535
     45 H19        -1.5597    6.9375   15.1344 H         1 SBR         0.0234
     46 H20        -1.0022    5.4986   14.2149 H         1 SBR         0.0234
     47 H21        -2.6271    5.5009   14.9807 H         1 SBR         0.0234
@<TRIPOS>BOND
     1    1   17 1  
     2    1    2 1  
     3    2   26 1  
     4    2    3 1  
     5    3    4 1  
     6    4    5 am 
     7    5    7 1  
     8    5    6 2  
     9    7   12 ar 
    10    7    8 ar 
    11    8    9 ar 
    12    9   10 ar 
    13   10   13 1  
    14   10   11 ar 
    15   11   12 ar 
    16   13   16 am 
    17   13   15 2  
    18   13   14 2  
    19   17   20 1  
    20   17   18 1  
    21   18   19 2  
    22   19   25 1  
    23   25   24 ar 
    24   25   20 ar 
    25   20   21 ar 
    26   21   22 ar 
    27   22   23 ar 
    28   23   24 ar 
    29    1   27 1  
    30    1   28 1  
    31    2   29 1  
    32    3   30 1  
    33    3   31 1  
    34    4   32 1  
    35    8   33 1  
    36    9   34 1  
    37   11   35 1  
    38   12   36 1  
    39   16   37 1  
    40   16   38 1  
    41   18   39 1  
    42   19   40 1  
    43   21   41 1  
    44   22   42 1  
    45   23   43 1  
    46   24   44 1  
    47   26   45 1  
    48   26   46 1  
    49   26   47 1  
@<TRIPOS>SUBSTRUCTURE
     1 SBR         1

