### 
### Created by X-TOOL on Mon Sep 10 21:12:48 2018
### 

@<TRIPOS>MOLECULE
1if8_ligand
   47    49     1     0     0
SMALL
GAST_HUCK


@<TRIPOS>ATOM
      1 C01        -0.6930    8.1310   12.6340 C.3       1 SBS         0.0561
      2 C02        -1.3240    6.9590   13.4850 C.3       1 SBS         0.0028
      3 C03        -2.6530    6.4880   12.8880 C.3       1 SBS         0.0354
      4 N04        -2.9960    5.1670   13.5830 N.am      1 SBS        -0.2858
      5 C05        -4.3520    5.1130   14.1120 C.2       1 SBS         0.2049
      6 O06        -5.0820    6.0970   13.9510 O.2       1 SBS        -0.3847
      7 C07        -4.7640    3.9310   14.7890 C.ar      1 SBS         0.0499
      8 C08        -3.8710    2.8290   14.9440 C.ar      1 SBS        -0.0401
      9 C09        -4.2720    1.6380   15.6340 C.ar      1 SBS        -0.0295
     10 C10        -5.6040    1.5140   16.2020 C.ar      1 SBS         0.1122
     11 C11        -6.4850    2.6340   16.0310 C.ar      1 SBS        -0.0295
     12 C12        -6.0760    3.8090   15.3410 C.ar      1 SBS        -0.0401
     13 S13        -6.1150    0.2340   17.0070 S.o2      1 SBS         0.0677
     14 O14        -5.5220    0.2440   18.3340 O.2       1 SBS        -0.1499
     15 O15        -7.5440    0.3170   17.1290 O.2       1 SBS        -0.1499
     16 NP6        -5.8280   -1.1030   16.2890 N.am      1 SBS        -0.2605
     17 NP7         0.6010    8.4970   13.2440 N.pl3     1 SBS        -0.2653
     18 C18         1.8200    7.8620   12.9560 C.2       1 SBS         0.0242
     19 C19         2.8840    8.5310   13.7870 C.2       1 SBS        -0.0638
     20 C20         0.8390    9.4810   14.1640 C.ar      1 SBS         0.0659
     21 C21        -0.0670   10.4270   14.7940 C.ar      1 SBS        -0.0431
     22 C22         0.4230   11.3670   15.7480 C.ar      1 SBS        -0.0764
     23 C23         1.8280   11.3810   16.0910 C.ar      1 SBS        -0.0790
     24 C24         2.7420   10.4390   15.4590 C.ar      1 SBS        -0.0752
     25 C25         2.2370    9.4860   14.4890 C.ar      1 SBS        -0.0278
     26 C26        -1.6060    7.4340   14.9370 C.3       1 SBS        -0.0581
     27 H1         -0.5353    7.7962   11.5981 H         1 SBS         0.0605
     28 H2         -1.3669    9.0003   12.6398 H         1 SBS         0.0605
     29 H3         -0.6163    6.1171   13.5054 H         1 SBS         0.0344
     30 H4         -2.5489    6.3316   11.8042 H         1 SBS         0.0523
     31 H5         -3.4401    7.2328   13.0771 H         1 SBS         0.0523
     32 H6         -2.3477    4.4101   13.6661 H         1 SBS         0.1845
     33 H7         -2.8703    2.8935   14.5322 H         1 SBS         0.0670
     34 H8         -3.5709    0.8173   15.7336 H         1 SBS         0.0649
     35 H9         -7.4883    2.5833   16.4382 H         1 SBS         0.0649
     36 H10        -6.7754    4.6299   15.2317 H         1 SBS         0.0670
     37 H11        -6.1079   -1.9663   16.7090 H         1 SBS         0.1635
     38 H12        -5.3622   -1.1054   15.4041 H         1 SBS         0.1635
     39 H13         1.9689    7.0377   12.2601 H         1 SBS         0.0934
     40 H14         3.9467    8.2950   13.8154 H         1 SBS         0.0285
     41 H15        -1.1202   10.4180   14.5375 H         1 SBS         0.0544
     42 H16        -0.2568   12.0702   16.2155 H         1 SBS         0.0530
     43 H17         2.2010   12.0927   16.8186 H         1 SBS         0.0515
     44 H18         3.7958   10.4502   15.7127 H         1 SBS         0.0535
     45 H19        -0.6692    7.7806   15.3978 H         1 SBS         0.0234
     46 H20        -2.0157    6.5982   15.5232 H         1 SBS         0.0234
     47 H21        -2.3327    8.2596   14.9181 H         1 SBS         0.0234
@<TRIPOS>BOND
     1    1   17 1  
     2    1    2 1  
     3    2   26 1  
     4    2    3 1  
     5    3    4 1  
     6    4    5 am 
     7    5    7 1  
     8    5    6 2  
     9    7   12 ar 
    10    7    8 ar 
    11    8    9 ar 
    12    9   10 ar 
    13   10   13 1  
    14   10   11 ar 
    15   11   12 ar 
    16   13   16 am 
    17   13   15 2  
    18   13   14 2  
    19   17   20 1  
    20   17   18 1  
    21   18   19 2  
    22   19   25 1  
    23   25   24 ar 
    24   25   20 ar 
    25   20   21 ar 
    26   21   22 ar 
    27   22   23 ar 
    28   23   24 ar 
    29    1   27 1  
    30    1   28 1  
    31    2   29 1  
    32    3   30 1  
    33    3   31 1  
    34    4   32 1  
    35    8   33 1  
    36    9   34 1  
    37   11   35 1  
    38   12   36 1  
    39   16   37 1  
    40   16   38 1  
    41   18   39 1  
    42   19   40 1  
    43   21   41 1  
    44   22   42 1  
    45   23   43 1  
    46   24   44 1  
    47   26   45 1  
    48   26   46 1  
    49   26   47 1  
@<TRIPOS>SUBSTRUCTURE
     1 SBS         1

