### 
### Created by X-TOOL on Fri Nov 18 11:53:37 2016
### 

@<TRIPOS>MOLECULE
1igj_ligand
   81    86     1     0     0
SMALL
GAST_HUCK


@<TRIPOS>ATOM
      1 C1        -12.8600   30.5530   29.6030 C.3       1 DGX        -0.0448
      2 C2        -14.2370   30.8280   29.0050 C.3       1 DGX        -0.0260
      3 C3        -15.3450   30.5190   30.0030 C.3       1 DGX         0.0620
      4 O3        -15.1660   31.2820   31.2080 O.3       1 DGX        -0.3480
      5 C4        -15.2960   29.0440   30.3670 C.3       1 DGX        -0.0232
      6 C5        -13.9590   28.7200   31.0240 C.3       1 DGX        -0.0330
      7 C6        -13.9130   27.2940   31.5560 C.3       1 DGX        -0.0493
      8 C7        -13.8200   26.2810   30.4260 C.3       1 DGX        -0.0470
      9 C8        -12.6190   26.5950   29.5330 C.3       1 DGX        -0.0079
     10 C9        -12.6130   28.0400   29.0220 C.3       1 DGX        -0.0276
     11 C10       -12.7320   29.1170   30.1400 C.3       1 DGX        -0.0258
     12 C11       -11.3790   28.2690   28.1660 C.3       1 DGX        -0.0223
     13 C12       -11.3900   27.3040   26.9990 C.3       1 DGX         0.0664
     14 O12       -10.3850   27.6410   26.0380 O.3       1 DGX        -0.3909
     15 C13       -11.2700   25.8240   27.4610 C.3       1 DGX         0.0405
     16 C14       -12.4620   25.5100   28.4310 C.3       1 DGX         0.0799
     17 O14       -12.2830   24.2320   29.0970 O.3       1 DGX        -0.3874
     18 C15       -13.6570   25.3010   27.4800 C.3       1 DGX        -0.0200
     19 C16       -13.0990   24.8230   26.1400 C.3       1 DGX        -0.0318
     20 C17       -11.5760   25.0010   26.1700 C.3       1 DGX         0.0177
     21 C18        -9.8900   25.5860   28.1160 C.3       1 DGX        -0.0516
     22 C19       -11.4340   29.2170   30.9610 C.3       1 DGX        -0.0590
     23 C20       -10.7520   23.7710   25.9440 C.2       1 DGX        -0.0063
     24 C21       -11.1790   22.4050   26.3180 C.3       1 DGX         0.1204
     25 O21       -10.0260   21.5670   26.0760 O.3       1 DGX        -0.2665
     26 C22        -9.5050   23.6880   25.4600 C.2       1 DGX         0.0017
     27 C23        -9.0660   22.3070   25.5210 C.2       1 DGX         0.2187
     28 O23        -7.9940   21.8000   25.2150 O.2       1 DGX        -0.3870
     29 C1X       -16.2710   32.0600   31.6780 C.3       1 DGX         0.1624
     30 C2X       -16.4780   33.2600   30.7520 C.3       1 DGX         0.0270
     31 C3X       -17.6850   34.0700   31.2070 C.3       1 DGX         0.0881
     32 O3X       -17.4590   34.7030   32.4860 O.3       1 DGX        -0.3890
     33 C4X       -18.9040   33.1420   31.2570 C.3       1 DGX         0.1070
     34 O4X       -19.9870   33.8440   31.8870 O.3       1 DGX        -0.3867
     35 C5X       -18.6400   31.8370   32.0270 C.3       1 DGX         0.0871
     36 O5X       -17.4280   31.2400   31.6130 O.3       1 DGX        -0.3456
     37 C6X       -19.6710   30.7790   31.6820 C.3       1 DGX        -0.0361
     38 H1        -12.0989   30.7085   28.8242 H         1 DGX         0.0271
     39 H2        -12.6870   31.2567   30.4305 H         1 DGX         0.0271
     40 H3        -14.3725   30.1988   28.1130 H         1 DGX         0.0290
     41 H4        -14.2981   31.8883   28.7186 H         1 DGX         0.0290
     42 H5        -16.3193   30.7613   29.5536 H         1 DGX         0.0597
     43 H6        -15.4116   28.4387   29.4559 H         1 DGX         0.0293
     44 H7        -16.1126   28.8129   31.0669 H         1 DGX         0.0293
     45 H8        -13.8985   29.3665   31.9119 H         1 DGX         0.0307
     46 H9        -14.8269   27.0992   32.1364 H         1 DGX         0.0268
     47 H10       -13.0340   27.1838   32.2081 H         1 DGX         0.0268
     48 H11       -14.7403   26.3217   29.8248 H         1 DGX         0.0269
     49 H12       -13.7035   25.2729   30.8504 H         1 DGX         0.0269
     50 H13       -11.7280   26.5070   30.1720 H         1 DGX         0.0332
     51 H14       -13.4948   28.1571   28.3750 H         1 DGX         0.0310
     52 H15       -10.4761   28.1020   28.7717 H         1 DGX         0.0293
     53 H16       -11.3811   29.3020   27.7880 H         1 DGX         0.0293
     54 H17       -12.3652   27.4085   26.5010 H         1 DGX         0.0602
     55 H18       -10.4880   28.5492   25.7789 H         1 DGX         0.2098
     56 H19       -13.0193   24.0718   29.6755 H         1 DGX         0.2102
     57 H20       -14.1995   26.2483   27.3445 H         1 DGX         0.0295
     58 H21       -14.3390   24.5439   27.8944 H         1 DGX         0.0295
     59 H22       -13.5285   25.4204   25.3223 H         1 DGX         0.0301
     60 H23       -13.3479   23.7622   25.9890 H         1 DGX         0.0301
     61 H24       -11.3247   25.6540   25.3212 H         1 DGX         0.0550
     62 H25        -9.0954   25.8213   27.3927 H         1 DGX         0.0239
     63 H26        -9.8064   24.5330   28.4228 H         1 DGX         0.0239
     64 H27        -9.7862   26.2344   28.9985 H         1 DGX         0.0239
     65 H28       -11.5512   29.9846   31.7401 H         1 DGX         0.0235
     66 H29       -10.6008   29.4921   30.2976 H         1 DGX         0.0235
     67 H30       -11.2223   28.2458   31.4321 H         1 DGX         0.0235
     68 H31       -12.0273   22.0824   25.6965 H         1 DGX         0.0859
     69 H32       -11.4667   22.3679   27.3790 H         1 DGX         0.0859
     70 H33        -8.9164   24.5226   25.0820 H         1 DGX         0.0295
     71 H34       -16.0923   32.3995   32.7089 H         1 DGX         0.0910
     72 H35       -16.6458   32.9027   29.7253 H         1 DGX         0.0340
     73 H36       -15.5819   33.8974   30.7766 H         1 DGX         0.0340
     74 H37       -17.8745   34.8603   30.4657 H         1 DGX         0.0621
     75 H38       -18.2223   35.2163   32.7233 H         1 DGX         0.2099
     76 H39       -19.1883   32.8848   30.2260 H         1 DGX         0.0645
     77 H40       -19.7535   34.0430   32.7861 H         1 DGX         0.2100
     78 H41       -18.6312   32.0440   33.1073 H         1 DGX         0.0621
     79 H42       -19.4562   29.8598   32.2468 H         1 DGX         0.0255
     80 H43       -19.6300   30.5648   30.6038 H         1 DGX         0.0255
     81 H44       -20.6743   31.1451   31.9453 H         1 DGX         0.0255
@<TRIPOS>BOND
     1   11    1 1  
     2    1    2 1  
     3    2    3 1  
     4    3    5 1  
     5    3    4 1  
     6    4   29 1  
     7   29   36 1  
     8   29   30 1  
     9   30   31 1  
    10   31   33 1  
    11   31   32 1  
    12   33   35 1  
    13   33   34 1  
    14   35   37 1  
    15   36   35 1  
    16    5    6 1  
    17   11    6 1  
    18    6    7 1  
    19    7    8 1  
    20    8    9 1  
    21    9   16 1  
    22    9   10 1  
    23   10   12 1  
    24   10   11 1  
    25   11   22 1  
    26   12   13 1  
    27   13   15 1  
    28   13   14 1  
    29   15   21 1  
    30   15   20 1  
    31   15   16 1  
    32   16   18 1  
    33   16   17 1  
    34   18   19 1  
    35   20   19 1  
    36   20   23 1  
    37   23   26 2  
    38   23   24 1  
    39   24   25 1  
    40   25   27 1  
    41   27   28 2  
    42   27   26 1  
    43    1   38 1  
    44    1   39 1  
    45    2   40 1  
    46    2   41 1  
    47    3   42 1  
    48    5   43 1  
    49    5   44 1  
    50    6   45 1  
    51    7   46 1  
    52    7   47 1  
    53    8   48 1  
    54    8   49 1  
    55    9   50 1  
    56   10   51 1  
    57   12   52 1  
    58   12   53 1  
    59   13   54 1  
    60   14   55 1  
    61   17   56 1  
    62   18   57 1  
    63   18   58 1  
    64   19   59 1  
    65   19   60 1  
    66   20   61 1  
    67   21   62 1  
    68   21   63 1  
    69   21   64 1  
    70   22   65 1  
    71   22   66 1  
    72   22   67 1  
    73   24   68 1  
    74   24   69 1  
    75   26   70 1  
    76   29   71 1  
    77   30   72 1  
    78   30   73 1  
    79   31   74 1  
    80   32   75 1  
    81   33   76 1  
    82   34   77 1  
    83   35   78 1  
    84   37   79 1  
    85   37   80 1  
    86   37   81 1  
@<TRIPOS>SUBSTRUCTURE
     1 DGX         1

