### 
### Created by X-TOOL on Mon Sep 10 21:12:48 2018
### 

@<TRIPOS>MOLECULE
1ih0_ligand
   56    59     1     0     0
SMALL
GAST_HUCK


@<TRIPOS>ATOM
      1 S1         60.9590    0.5740    3.2660 S.3       1 EMD        -0.0179
      2 C2         62.4690    1.1230    2.5010 C.2       1 EMD         0.2747
      3 O2         63.5220    0.5220    2.7080 O.2       1 EMD        -0.3793
      4 N3         62.4250    2.1130    1.6170 N.am      1 EMD        -0.2434
      5 N4         61.2730    2.7490    1.2080 N.4       1 EMD         0.3757
      6 C5         60.0220    2.5500    1.4510 C.3       1 EMD         0.0413
      7 C6         59.6350    1.3010    2.2710 C.3       1 EMD         0.0742
      8 C7         59.1030    0.2120    1.3390 C.3       1 EMD        -0.0441
      9 C8         58.9890    3.6990    1.1740 C.ar      1 EMD        -0.0149
     10 C9         58.2730    4.2610    2.2390 C.ar      1 EMD        -0.0658
     11 C10        57.3470    5.2920    2.0030 C.ar      1 EMD        -0.0265
     12 C11        57.1480    5.7490    0.6770 C.ar      1 EMD         0.0646
     13 C12        57.8670    5.1830   -0.3830 C.ar      1 EMD        -0.0532
     14 C13        58.7890    4.1590   -0.1340 C.ar      1 EMD        -0.0749
     15 N14        56.1340    6.8600    0.4330 N.am      1 EMD        -0.2276
     16 C15        55.6720    7.6960    1.6210 C.3       1 EMD         0.0537
     17 C16        56.3190    7.3990    2.9580 C.3       1 EMD        -0.0203
     18 C17        56.5690    5.8900    3.1840 C.3       1 EMD        -0.0221
     19 C18        55.6070    7.1480   -0.8220 C.2       1 EMD         0.2206
     20 O18        55.9380    6.5090   -1.8200 O.2       1 EMD        -0.3799
     21 C19        54.5880    8.2730   -1.0210 C.ar      1 EMD         0.0351
     22 C20        54.9240    9.3930   -1.7930 C.ar      1 EMD        -0.0213
     23 C21        54.0530   10.4920   -1.8520 C.ar      1 EMD         0.1252
     24 O21        54.4330   11.5860   -2.6380 O.3       1 EMD        -0.3239
     25 C22        52.8600   10.4720   -1.1490 C.ar      1 EMD         0.1251
     26 O22        51.9610   11.5440   -1.1760 O.3       1 EMD        -0.3213
     27 C23        52.5190    9.3530   -0.3750 C.ar      1 EMD        -0.0349
     28 C24        53.3820    8.2540   -0.3110 C.ar      1 EMD        -0.0611
     29 C25        55.7920   11.8610   -3.0630 C.3       1 EMD         0.0569
     30 C26        51.0400   11.8670   -0.1040 C.3       1 EMD         0.0582
     31 H1         63.2901    2.4190    1.2195 H         1 EMD         0.2392
     32 H2         61.3245    2.6973    0.2027 H         1 EMD         0.2295
     33 H3         61.4174    3.7019    1.5033 H         1 EMD         0.2295
     34 H4         59.8329    2.0600    0.4845 H         1 EMD         0.1006
     35 H5         58.8305    1.6014    2.9584 H         1 EMD         0.0512
     36 H6         58.2937    0.6239    0.7183 H         1 EMD         0.0245
     37 H7         58.7159   -0.6259    1.9374 H         1 EMD         0.0245
     38 H8         59.9166   -0.1455    0.6907 H         1 EMD         0.0245
     39 H9         58.4336    3.8996    3.2483 H         1 EMD         0.0459
     40 H10        57.7100    5.5373   -1.3954 H         1 EMD         0.0465
     41 H11        59.3481    3.7221   -0.9535 H         1 EMD         0.0465
     42 H12        54.5886    7.5430    1.7343 H         1 EMD         0.0581
     43 H13        55.8704    8.7513    1.3825 H         1 EMD         0.0581
     44 H14        55.6595    7.7689    3.7569 H         1 EMD         0.0308
     45 H15        57.2836    7.9254    3.0057 H         1 EMD         0.0308
     46 H16        57.1511    5.7537    4.1074 H         1 EMD         0.0397
     47 H17        55.6027    5.3733    3.2800 H         1 EMD         0.0397
     48 H18        55.8569    9.4107   -2.3448 H         1 EMD         0.0557
     49 H19        51.5848    9.3399    0.1747 H         1 EMD         0.0524
     50 H20        53.1173    7.3896    0.2871 H         1 EMD         0.0550
     51 H21        55.8081   12.7794   -3.6683 H         1 EMD         0.0573
     52 H22        56.1657   11.0190   -3.6642 H         1 EMD         0.0573
     53 H23        56.4330   11.9933   -2.1789 H         1 EMD         0.0573
     54 H24        50.4505   12.7532   -0.3817 H         1 EMD         0.0575
     55 H25        51.6064   12.0767    0.8153 H         1 EMD         0.0575
     56 H26        50.3642   11.0162    0.0677 H         1 EMD         0.0575
@<TRIPOS>BOND
     1    1    2 1  
     2    1    7 1  
     3    2    3 2  
     4    2    4 am 
     5    4    5 1  
     6    4   31 1  
     7    5    6 1  
     8    6    7 1  
     9    6    9 1  
    10    7    8 1  
    11    5   32 1  
    12    5   33 1  
    13    6   34 1  
    14    7   35 1  
    15    9   10 ar 
    16    9   14 ar 
    17   10   11 ar 
    18    8   36 1  
    19   11   12 ar 
    20   11   18 1  
    21   12   13 ar 
    22   12   15 1  
    23   13   14 ar 
    24    8   37 1  
    25    8   38 1  
    26   15   16 1  
    27   15   19 am 
    28   16   17 1  
    29   10   39 1  
    30   13   40 1  
    31   17   18 1  
    32   14   41 1  
    33   16   42 1  
    34   16   43 1  
    35   17   44 1  
    36   19   20 2  
    37   19   21 1  
    38   21   22 ar 
    39   21   28 ar 
    40   22   23 ar 
    41   17   45 1  
    42   23   24 1  
    43   23   25 ar 
    44   24   29 1  
    45   25   26 1  
    46   25   27 ar 
    47   26   30 1  
    48   27   28 ar 
    49   18   46 1  
    50   18   47 1  
    51   22   48 1  
    52   27   49 1  
    53   28   50 1  
    54   29   51 1  
    55   29   52 1  
    56   29   53 1  
    57   30   54 1  
    58   30   55 1  
    59   30   56 1  
@<TRIPOS>SUBSTRUCTURE
     1 EMD         1

