### 
### Created by X-TOOL on Mon Sep 10 21:12:48 2018
### 

@<TRIPOS>MOLECULE
1iiq_ligand
  102   104     1     0     0
SMALL
GAST_HUCK


@<TRIPOS>ATOM
      1 O1         13.9320   20.2880    5.3490 O.2       1 0ZR        -0.3775
      2 C          15.1440   20.4740    5.3040 C.2       1 0ZR         0.3205
      3 O2         16.0620   19.7850    4.5090 O.3       1 0ZR        -0.2581
      4 CT         15.6720   18.8600    3.3620 C.3       1 0ZR         0.0905
      5 C1         16.9730   18.3240    2.7400 C.3       1 0ZR        -0.0320
      6 C2         14.8760   19.6640    2.3290 C.3       1 0ZR        -0.0320
      7 C3         14.8320   17.7020    3.9310 C.3       1 0ZR        -0.0320
      8 N          15.7950   21.4510    6.0170 N.am      1 0ZR        -0.2548
      9 CA         15.0340   22.3750    6.8790 C.3       1 0ZR         0.0842
     10 C          14.7000   23.6970    6.1860 C.3       1 0ZR         0.1193
     11 OS         15.8930   24.3610    5.8460 O.3       1 0ZR        -0.3841
     12 CB         15.7980   22.6880    8.1650 C.3       1 0ZR         0.0065
     13 CG         16.2410   21.4780    8.9030 C.ar      1 0ZR        -0.0408
     14 CD1        17.4950   20.9300    8.6670 C.ar      1 0ZR        -0.0603
     15 CD2        15.3880   20.8510    9.8010 C.ar      1 0ZR        -0.0603
     16 CE1        17.8950   19.7700    9.3130 C.ar      1 0ZR        -0.0686
     17 CE2        15.7790   19.6900   10.4480 C.ar      1 0ZR        -0.0686
     18 CZ         17.0340   19.1470   10.2060 C.ar      1 0ZR        -0.0687
     19 CM         13.8770   23.4540    4.9180 C.3       1 0ZR        -0.0025
     20 N          13.4480   24.7090    4.3560 N.4       1 0ZR         0.2495
     21 CA         12.0320   24.7630    4.0110 C.3       1 0ZR         0.0763
     22 C          11.0820   24.7060    5.1980 C.2       1 0ZR         0.2289
     23 O          11.0980   23.7780    6.0130 O.2       1 0ZR        -0.3905
     24 CB         11.6510   23.6540    3.0260 C.3       1 0ZR         0.0416
     25 CG         10.2000   23.6820    2.6270 C.ar      1 0ZR        -0.0353
     26 CD1         9.3740   22.5840    2.8620 C.ar      1 0ZR        -0.0600
     27 CD2         9.6540   24.8160    2.0320 C.ar      1 0ZR        -0.0600
     28 CE1         8.0200   22.6170    2.5080 C.ar      1 0ZR        -0.0686
     29 CE2         8.3060   24.8590    1.6730 C.ar      1 0ZR        -0.0686
     30 CZ          7.4880   23.7580    1.9120 C.ar      1 0ZR        -0.0687
     31 N          10.2390   25.7210    5.2770 N.am      1 0ZR        -0.2607
     32 CA          9.2520   25.8220    6.3310 C.3       1 0ZR         0.1332
     33 C           8.1760   26.7930    5.8500 C.2       1 0ZR         0.2042
     34 O           8.4690   27.7590    5.1310 O.2       1 0ZR        -0.3944
     35 CB          9.9170   26.3210    7.6220 C.3       1 0ZR         0.0045
     36 CG          8.9790   26.5590    8.8000 C.3       1 0ZR         0.0412
     37 CD          8.2300   27.8940    8.7110 C.2       1 0ZR         0.1737
     38 OE1         8.6800   28.8350    8.0520 O.2       1 0ZR        -0.3973
     39 NE2         7.0950   27.9840    9.3950 N.am      1 0ZR        -0.3009
     40 N           6.9270   26.5130    6.2110 N.am      1 0ZR        -0.2619
     41 CA          5.8240   27.3850    5.8360 C.3       1 0ZR         0.1401
     42 C           4.7630   27.3850    6.9280 C.2       1 0ZR         0.2012
     43 O           4.6340   26.4200    7.6770 O.2       1 0ZR        -0.3946
     44 CB          5.2330   26.9550    4.4810 C.3       1 0ZR         0.0214
     45 CG          4.5860   25.5900    4.4880 C.ar      1 0ZR        -0.0386
     46 CD1         3.2310   25.4460    4.7910 C.ar      1 0ZR        -0.0601
     47 CD2         5.3280   24.4530    4.1730 C.ar      1 0ZR        -0.0601
     48 CE1         2.6200   24.1870    4.7790 C.ar      1 0ZR        -0.0686
     49 CE2         4.7300   23.1880    4.1570 C.ar      1 0ZR        -0.0686
     50 CZ          3.3710   23.0580    4.4610 C.ar      1 0ZR        -0.0687
     51 N           4.0190   28.4790    7.0370 N.am      1 0ZR        -0.2988
     52 H1         16.7298   17.6500    1.9054 H         1 0ZR         0.0260
     53 H2         17.5438   17.7730    3.5019 H         1 0ZR         0.0260
     54 H3         17.5755   19.1657    2.3679 H         1 0ZR         0.0260
     55 H4         14.5884   19.0066    1.4952 H         1 0ZR         0.0260
     56 H5         15.4968   20.4885    1.9485 H         1 0ZR         0.0260
     57 H6         13.9712   20.0740    2.8015 H         1 0ZR         0.0260
     58 H7         14.5418   17.0240    3.1148 H         1 0ZR         0.0260
     59 H8         13.9284   18.1058    4.4110 H         1 0ZR         0.0260
     60 H9         15.4256   17.1488    4.6736 H         1 0ZR         0.0260
     61 H10        16.7892   21.5363    5.9514 H         1 0ZR         0.1873
     62 H11        14.0891   21.8790    7.1459 H         1 0ZR         0.0606
     63 H12        14.1180   24.3257    6.8759 H         1 0ZR         0.0672
     64 H13        15.6855   25.1821    5.4156 H         1 0ZR         0.2101
     65 H14        15.1430   23.2768    8.8240 H         1 0ZR         0.0449
     66 H15        16.6868   23.2819    7.9056 H         1 0ZR         0.0449
     67 H16        18.1689   21.4146    7.9698 H         1 0ZR         0.0557
     68 H17        14.4089   21.2728    9.9974 H         1 0ZR         0.0557
     69 H18        18.8763   19.3513    9.1214 H         1 0ZR         0.0599
     70 H19        15.1044   19.2048   11.1441 H         1 0ZR         0.0599
     71 H20        17.3404   18.2392   10.7130 H         1 0ZR         0.0559
     72 H21        12.9943   22.8472    5.1683 H         1 0ZR         0.0841
     73 H22        14.4937   22.9179    4.1816 H         1 0ZR         0.0841
     74 H23        13.9830   24.8786    3.5187 H         1 0ZR         0.2038
     75 H24        13.6364   25.4361    5.0282 H         1 0ZR         0.2038
     76 H25        11.8676   25.7285    3.5103 H         1 0ZR         0.1123
     77 H26        11.8650   22.6823    3.4950 H         1 0ZR         0.0507
     78 H27        12.2641   23.7667    2.1197 H         1 0ZR         0.0507
     79 H28         9.7851   21.6939    3.3244 H         1 0ZR         0.0557
     80 H29        10.2846   25.6776    1.8449 H         1 0ZR         0.0557
     81 H30         7.3875   21.7572    2.6971 H         1 0ZR         0.0599
     82 H31         7.8963   25.7487    1.2086 H         1 0ZR         0.0599
     83 H32         6.4404   23.7887    1.6351 H         1 0ZR         0.0559
     84 H33        10.2846   26.4426    4.5862 H         1 0ZR         0.1885
     85 H34         8.8017   24.8358    6.5173 H         1 0ZR         0.0801
     86 H35        10.4232   27.2711    7.3959 H         1 0ZR         0.0337
     87 H36        10.6622   25.5725    7.9294 H         1 0ZR         0.0337
     88 H37         9.5715   26.5509    9.7267 H         1 0ZR         0.0504
     89 H38         8.2404   25.7444    8.8298 H         1 0ZR         0.0504
     90 H39         6.5643   28.8313    9.3738 H         1 0ZR         0.1814
     91 H40         6.7712   27.2045    9.9312 H         1 0ZR         0.1814
     92 H41         6.7429   25.6902    6.7487 H         1 0ZR         0.1885
     93 H42         6.2109   28.4094    5.7317 H         1 0ZR         0.0823
     94 H43         6.0445   26.9473    3.7384 H         1 0ZR         0.0474
     95 H44         4.4735   27.6943    4.1866 H         1 0ZR         0.0474
     96 H45         2.6433   26.3224    5.0393 H         1 0ZR         0.0557
     97 H46         6.3817   24.5499    3.9374 H         1 0ZR         0.0557
     98 H47         1.5666   24.0909    5.0162 H         1 0ZR         0.0599
     99 H48         5.3181   22.3116    3.9098 H         1 0ZR         0.0599
    100 H49         2.9031   22.0803    4.4491 H         1 0ZR         0.0559
    101 H50         3.3074   28.5320    7.7376 H         1 0ZR         0.1815
    102 H51         4.1701   29.2501    6.4185 H         1 0ZR         0.1815
@<TRIPOS>BOND
     1    1    2 2  
     2    2    3 1  
     3    2    8 am 
     4    3    4 1  
     5    4    5 1  
     6    4    6 1  
     7    4    7 1  
     8    8    9 1  
     9    9   10 1  
    10    9   12 1  
    11   10   11 1  
    12   10   19 1  
    13   12   13 1  
    14   13   14 ar 
    15   13   15 ar 
    16   14   16 ar 
    17   15   17 ar 
    18   16   18 ar 
    19   17   18 ar 
    20   19   20 1  
    21   20   21 1  
    22   21   22 1  
    23   21   24 1  
    24   22   23 2  
    25   22   31 am 
    26   24   25 1  
    27   25   26 ar 
    28   25   27 ar 
    29   26   28 ar 
    30   27   29 ar 
    31   28   30 ar 
    32   29   30 ar 
    33   31   32 1  
    34   32   33 1  
    35   32   35 1  
    36   33   34 2  
    37   33   40 am 
    38   35   36 1  
    39   36   37 1  
    40   37   38 2  
    41   37   39 am 
    42   40   41 1  
    43   41   42 1  
    44   41   44 1  
    45   42   43 2  
    46   42   51 am 
    47   44   45 1  
    48   45   46 ar 
    49   45   47 ar 
    50   46   48 ar 
    51   47   49 ar 
    52   48   50 ar 
    53   49   50 ar 
    54    5   52 1  
    55    5   53 1  
    56    5   54 1  
    57    6   55 1  
    58    6   56 1  
    59    6   57 1  
    60    7   58 1  
    61    7   59 1  
    62    7   60 1  
    63    8   61 1  
    64    9   62 1  
    65   10   63 1  
    66   11   64 1  
    67   12   65 1  
    68   12   66 1  
    69   14   67 1  
    70   15   68 1  
    71   16   69 1  
    72   17   70 1  
    73   18   71 1  
    74   19   72 1  
    75   19   73 1  
    76   20   74 1  
    77   20   75 1  
    78   21   76 1  
    79   24   77 1  
    80   24   78 1  
    81   26   79 1  
    82   27   80 1  
    83   28   81 1  
    84   29   82 1  
    85   30   83 1  
    86   31   84 1  
    87   32   85 1  
    88   35   86 1  
    89   35   87 1  
    90   36   88 1  
    91   36   89 1  
    92   39   90 1  
    93   39   91 1  
    94   40   92 1  
    95   41   93 1  
    96   44   94 1  
    97   44   95 1  
    98   46   96 1  
    99   47   97 1  
   100   48   98 1  
   101   49   99 1  
   102   50  100 1  
   103   51  101 1  
   104   51  102 1  
@<TRIPOS>SUBSTRUCTURE
     1 0ZR         1

