### 
### Created by X-TOOL on Mon Sep 10 21:12:48 2018
### 

@<TRIPOS>MOLECULE
1ikt_ligand
   61    61     1     0     0
SMALL
GAST_HUCK


@<TRIPOS>ATOM
      1 C5         29.5530   28.8300   15.9440 C.3       1 OXN        -0.0733
      2 C1         30.2890   28.7900   17.2730 C.3       1 OXN        -0.0462
      3 C3         29.3270   28.4350   18.4150 C.3       1 OXN        -0.0609
      4 C4         31.3090   27.6510   17.1890 C.3       1 OXN        -0.0609
      5 C2         31.0540   30.0570   17.7100 C.3       1 OXN        -0.0609
      6 C6         29.8430   29.2540   14.4720 C.3       1 OXN        -0.0537
      7 C9         30.4160   30.6950   14.3880 C.ar      1 OXN        -0.0623
      8 C8         30.7990   28.2770   13.7980 C.3       1 OXN        -0.0901
      9 C7         28.5370   29.2090   13.6820 C.3       1 OXN        -0.0901
     10 C10        29.5790   31.8340   14.6420 C.ar      1 OXN        -0.0461
     11 C11        30.1000   33.1770   14.5860 C.ar      1 OXN         0.0013
     12 C12        31.4620   33.3240   14.2710 C.ar      1 OXN         0.1291
     13 C13        32.3410   32.2670   14.0150 C.ar      1 OXN         0.0013
     14 C14        31.7970   30.9260   14.0760 C.ar      1 OXN        -0.0461
     15 O15        31.9870   34.6660   14.1200 O.3       1 OXN        -0.2908
     16 C16        31.7630   35.5090   15.2590 C.3       1 OXN         0.1029
     17 C17        31.5560   36.9420   14.8090 C.3       1 OXN         0.0771
     18 O18        32.8010   37.6480   14.7910 O.3       1 OXN        -0.3747
     19 C19        32.6720   38.9270   14.1580 C.3       1 OXN         0.0711
     20 C20        33.6100   39.9300   14.8010 C.3       1 OXN         0.0711
     21 O21        32.9430   40.6310   15.8510 O.3       1 OXN        -0.3752
     22 C22        33.5260   41.9120   16.1060 C.3       1 OXN         0.0711
     23 C23        32.8960   42.5390   17.3490 C.3       1 OXN         0.0706
     24 O24        33.5580   42.0700   18.5240 O.3       1 OXN        -0.3807
     25 C25        33.3050   42.9050   19.6530 C.3       1 OXN         0.0365
     26 H1         29.2452   27.7810   15.8225 H         1 OXN         0.0159
     27 H2         28.6739   29.4441   16.1890 H         1 OXN         0.0159
     28 H3         29.8795   28.4116   19.3659 H         1 OXN         0.0235
     29 H4         28.8814   27.4473   18.2255 H         1 OXN         0.0235
     30 H5         28.5307   29.1917   18.4722 H         1 OXN         0.0235
     31 H6         32.0252   27.8591   16.3805 H         1 OXN         0.0235
     32 H7         30.7866   26.7055   16.9816 H         1 OXN         0.0235
     33 H8         31.8480   27.5702   18.1445 H         1 OXN         0.0235
     34 H9         31.7592   30.3507   16.9186 H         1 OXN         0.0235
     35 H10        31.6088   29.8490   18.6368 H         1 OXN         0.0235
     36 H11        30.3393   30.8744   17.8861 H         1 OXN         0.0235
     37 H12        30.9848   28.6007   12.7633 H         1 OXN         0.0117
     38 H13        30.3527   27.2716   13.7931 H         1 OXN         0.0117
     39 H14        31.7495   28.2535   14.3511 H         1 OXN         0.0117
     40 H15        27.8115   29.9018   14.1332 H         1 OXN         0.0117
     41 H16        28.1304   28.1871   13.7036 H         1 OXN         0.0117
     42 H17        28.7282   29.5057   12.6402 H         1 OXN         0.0117
     43 H18        28.5329   31.6806   14.8810 H         1 OXN         0.0823
     44 H19        29.4684   34.0367   14.7786 H         1 OXN         0.0651
     45 H20        33.3846   32.4436   13.7810 H         1 OXN         0.0651
     46 H21        32.4464   30.0800   13.8820 H         1 OXN         0.0823
     47 H22        32.6357   35.4591   15.9267 H         1 OXN         0.0656
     48 H23        30.8686   35.1634   15.7980 H         1 OXN         0.0656
     49 H24        30.8660   37.4432   15.5037 H         1 OXN         0.0588
     50 H25        31.1240   36.9447   13.7974 H         1 OXN         0.0588
     51 H26        31.6357   39.2807   14.2626 H         1 OXN         0.0583
     52 H27        32.9205   38.8304   13.0908 H         1 OXN         0.0583
     53 H28        33.9471   40.6503   14.0411 H         1 OXN         0.0583
     54 H29        34.4801   39.3994   15.2148 H         1 OXN         0.0583
     55 H30        33.3537   42.5687   15.2405 H         1 OXN         0.0583
     56 H31        34.6077   41.7937   16.2670 H         1 OXN         0.0583
     57 H32        31.8322   42.2633   17.3962 H         1 OXN         0.0582
     58 H33        32.9890   43.6335   17.2914 H         1 OXN         0.0582
     59 H34        33.8338   42.5050   20.5307 H         1 OXN         0.0524
     60 H35        32.2242   42.9297   19.8560 H         1 OXN         0.0524
     61 H36        33.6620   43.9240   19.4428 H         1 OXN         0.0524
@<TRIPOS>BOND
     1    1    6 1  
     2    1    2 1  
     3    2    5 1  
     4    2    4 1  
     5    2    3 1  
     6    6    9 1  
     7    6    8 1  
     8    6    7 1  
     9    7   14 ar 
    10    7   10 ar 
    11   10   11 ar 
    12   11   12 ar 
    13   12   15 1  
    14   12   13 ar 
    15   13   14 ar 
    16   15   16 1  
    17   16   17 1  
    18   17   18 1  
    19   18   19 1  
    20   19   20 1  
    21   20   21 1  
    22   21   22 1  
    23   22   23 1  
    24   23   24 1  
    25   24   25 1  
    26    1   26 1  
    27    1   27 1  
    28    3   28 1  
    29    3   29 1  
    30    3   30 1  
    31    4   31 1  
    32    4   32 1  
    33    4   33 1  
    34    5   34 1  
    35    5   35 1  
    36    5   36 1  
    37    8   37 1  
    38    8   38 1  
    39    8   39 1  
    40    9   40 1  
    41    9   41 1  
    42    9   42 1  
    43   10   43 1  
    44   11   44 1  
    45   13   45 1  
    46   14   46 1  
    47   16   47 1  
    48   16   48 1  
    49   17   49 1  
    50   17   50 1  
    51   19   51 1  
    52   19   52 1  
    53   20   53 1  
    54   20   54 1  
    55   22   55 1  
    56   22   56 1  
    57   23   57 1  
    58   23   58 1  
    59   25   59 1  
    60   25   60 1  
    61   25   61 1  
@<TRIPOS>SUBSTRUCTURE
     1 OXN         1

