### 
### Created by X-TOOL on Mon Sep 10 21:12:48 2018
### 

@<TRIPOS>MOLECULE
1ikv_ligand
   30    32     1     0     0
SMALL
GAST_HUCK


@<TRIPOS>ATOM
      1 CL         -7.0660  145.9570  174.8140 Cl        1 EFZ        -0.0730
      2 F1        -12.2330  145.0560  174.0300 F         1 EFZ        -0.1783
      3 F2        -12.0380  144.7650  171.7930 F         1 EFZ        -0.1783
      4 F3        -13.3770  143.3890  172.9930 F         1 EFZ        -0.1783
      5 O1        -11.1220  141.2380  170.3250 O.2       1 EFZ        -0.3579
      6 O2        -11.1360  141.8690  172.4590 O.3       1 EFZ        -0.2819
      7 N          -9.5190  142.7610  170.8650 N.am      1 EFZ        -0.1817
      8 C1         -8.8860  143.5780  171.8390 C.ar      1 EFZ         0.1092
      9 C2         -7.6080  144.1720  171.5940 C.ar      1 EFZ        -0.0056
     10 C3         -6.9810  144.9840  172.5970 C.ar      1 EFZ        -0.0323
     11 C4         -7.6330  145.2050  173.8470 C.ar      1 EFZ         0.0535
     12 C5         -8.9110  144.6110  174.0770 C.ar      1 EFZ        -0.0357
     13 C6         -9.5710  143.7890  173.0850 C.ar      1 EFZ         0.0186
     14 C7        -10.9740  143.0950  173.2600 C.3       1 EFZ         0.2204
     15 C8        -11.0730  142.5760  174.6330 C.1       1 EFZ        -0.1135
     16 C9        -11.2490  142.1770  175.9090 C.1       1 EFZ        -0.1095
     17 C10       -11.4190  141.6750  177.2610 C.3       1 EFZ         0.0197
     18 C11       -11.0230  140.3290  177.7300 C.3       1 EFZ        -0.0382
     19 C12       -10.0370  141.5250  177.9300 C.3       1 EFZ        -0.0382
     20 C13       -12.1820  144.1100  173.0170 C.3       1 EFZ         0.3959
     21 C14       -10.6150  141.9250  171.1980 C.2       1 EFZ         0.3598
     22 H1         -9.1842  142.7756  169.9228 H         1 EFZ         0.2526
     23 H2         -7.1104  144.0077  170.6451 H         1 EFZ         0.0600
     24 H3         -6.0117  145.4298  172.4052 H         1 EFZ         0.0805
     25 H4         -9.4039  144.7815  175.0273 H         1 EFZ         0.0777
     26 H5        -12.2742  142.1641  177.7503 H         1 EFZ         0.0433
     27 H6        -10.7875  139.5417  176.9988 H         1 EFZ         0.0277
     28 H7        -11.5259  139.8825  178.6005 H         1 EFZ         0.0277
     29 H8         -9.8548  141.9366  178.9337 H         1 EFZ         0.0277
     30 H9         -9.1165  141.5958  177.3320 H         1 EFZ         0.0277
@<TRIPOS>BOND
     1   11    1 1  
     2   20    2 1  
     3   20    3 1  
     4   20    4 1  
     5   21    5 2  
     6   14    6 1  
     7    6   21 1  
     8    8    7 1  
     9   21    7 am 
    10    8    9 ar 
    11   13    8 ar 
    12    9   10 ar 
    13   11   10 ar 
    14   12   11 ar 
    15   13   12 ar 
    16   14   13 1  
    17   14   15 1  
    18   14   20 1  
    19   15   16 3  
    20   16   17 1  
    21   17   18 1  
    22   17   19 1  
    23   18   19 1  
    24    7   22 1  
    25    9   23 1  
    26   10   24 1  
    27   12   25 1  
    28   17   26 1  
    29   18   27 1  
    30   18   28 1  
    31   19   29 1  
    32   19   30 1  
@<TRIPOS>SUBSTRUCTURE
     1 EFZ         1

