### 
### Created by X-TOOL on Mon Sep 10 21:12:48 2018
### 

@<TRIPOS>MOLECULE
1ikw_ligand
   30    32     1     0     0
SMALL
GAST_HUCK


@<TRIPOS>ATOM
      1 CL         -7.0580  146.0360  175.8400 Cl        1 EFZ        -0.0730
      2 F1        -12.0580  145.1600  174.8030 F         1 EFZ        -0.1783
      3 F2        -11.9300  144.5790  172.6110 F         1 EFZ        -0.1783
      4 F3        -13.2680  143.4330  173.9990 F         1 EFZ        -0.1783
      5 O1        -10.8650  141.1570  171.3080 O.2       1 EFZ        -0.3579
      6 O2        -10.9920  141.8560  173.4180 O.3       1 EFZ        -0.2819
      7 N          -9.3010  142.7160  171.8850 N.am      1 EFZ        -0.1817
      8 C1         -8.7220  143.5640  172.8590 C.ar      1 EFZ         0.1092
      9 C2         -7.4330  144.1570  172.6480 C.ar      1 EFZ        -0.0056
     10 C3         -6.8570  145.0020  173.6550 C.ar      1 EFZ        -0.0323
     11 C4         -7.5710  145.2540  174.8720 C.ar      1 EFZ         0.0535
     12 C5         -8.8540  144.6570  175.0620 C.ar      1 EFZ        -0.0357
     13 C6         -9.4650  143.8010  174.0690 C.ar      1 EFZ         0.0186
     14 C7        -10.8690  143.0970  174.2060 C.3       1 EFZ         0.2204
     15 C8        -10.9970  142.5760  175.5730 C.1       1 EFZ        -0.1135
     16 C9        -11.2010  142.0780  176.8030 C.1       1 EFZ        -0.1095
     17 C10       -11.3910  141.4730  178.1030 C.3       1 EFZ         0.0197
     18 C11       -10.7410  140.2320  178.5780 C.3       1 EFZ        -0.0382
     19 C12       -10.1040  141.6150  178.9340 C.3       1 EFZ        -0.0382
     20 C13       -12.0590  144.1020  173.9050 C.3       1 EFZ         0.3959
     21 C14       -10.4100  141.8780  172.1860 C.2       1 EFZ         0.3598
     22 H1         -8.9202  142.7058  170.9604 H         1 EFZ         0.2526
     23 H2         -6.8935  143.9668  171.7272 H         1 EFZ         0.0600
     24 H3         -5.8826  145.4493  173.4953 H         1 EFZ         0.0805
     25 H4         -9.3896  144.8524  175.9839 H         1 EFZ         0.0777
     26 H5        -12.3883  141.7171  178.4976 H         1 EFZ         0.0433
     27 H6        -10.2398  139.5663  177.8599 H         1 EFZ         0.0277
     28 H7        -11.2185  139.6297  179.3649 H         1 EFZ         0.0277
     29 H8        -10.1440  141.9995  179.9638 H         1 EFZ         0.0277
     30 H9         -9.1653  141.9361  178.4589 H         1 EFZ         0.0277
@<TRIPOS>BOND
     1   11    1 1  
     2   20    2 1  
     3   20    3 1  
     4   20    4 1  
     5   21    5 2  
     6   14    6 1  
     7    6   21 1  
     8    8    7 1  
     9   21    7 am 
    10    8    9 ar 
    11   13    8 ar 
    12    9   10 ar 
    13   11   10 ar 
    14   12   11 ar 
    15   13   12 ar 
    16   14   13 1  
    17   14   15 1  
    18   14   20 1  
    19   15   16 3  
    20   16   17 1  
    21   17   18 1  
    22   17   19 1  
    23   18   19 1  
    24    7   22 1  
    25    9   23 1  
    26   10   24 1  
    27   12   25 1  
    28   17   26 1  
    29   18   27 1  
    30   18   28 1  
    31   19   29 1  
    32   19   30 1  
@<TRIPOS>SUBSTRUCTURE
     1 EFZ         1

