### 
### Created by X-TOOL on Mon Sep 10 21:12:48 2018
### 

@<TRIPOS>MOLECULE
1ikx_ligand
   31    33     1     0     0
SMALL
GAST_HUCK


@<TRIPOS>ATOM
      1 C1         -9.8980  142.8870  172.6230 C.ar      1 PNU         0.1469
      2 N2         -8.9790  142.6990  171.6160 N.ar      1 PNU        -0.2467
      3 C3         -7.6580  143.0290  171.8440 C.ar      1 PNU         0.1155
      4 C4         -7.2730  143.5580  173.1240 C.ar      1 PNU         0.0150
      5 C5         -8.2380  143.7390  174.1410 C.ar      1 PNU         0.1132
      6 N6         -9.5790  143.3720  173.8190 N.ar      1 PNU        -0.2589
      7 C7        -11.6200  139.7180  176.7090 C.ar      1 PNU         0.1450
      8 C8        -12.2700  139.3770  175.4940 C.ar      1 PNU         0.0333
      9 N9        -12.4940  140.3980  174.6020 N.ar      1 PNU        -0.3123
     10 C10       -12.1170  141.7040  174.8430 C.ar      1 PNU         0.0243
     11 C11       -11.4550  142.0780  176.0500 C.ar      1 PNU        -0.0453
     12 C12       -11.2230  141.0410  176.9760 C.ar      1 PNU        -0.0009
     13 C13       -10.5920  140.9460  178.3440 C.2       1 PNU        -0.0392
     14 O14       -11.3020  138.8280  177.7580 O.3       1 PNU        -0.2497
     15 C15       -10.6960  139.6410  178.6880 C.2       1 PNU         0.0909
     16 C16       -12.4030  142.8710  173.9000 C.3       1 PNU         0.0636
     17 S17       -11.6010  142.4600  172.2990 S.3       1 PNU        -0.0431
     18 N18        -6.6820  142.8480  170.8110 N.pl3     1 PNU        -0.3171
     19 CL19       -7.9040  144.3060  175.5650 Cl        1 PNU        -0.0352
     20 C21       -13.9480  143.0030  173.7150 C.3       1 PNU        -0.0402
     21 H1         -6.2376  143.8194  173.3103 H         1 PNU         0.0596
     22 H2        -12.5753  138.3591  175.2799 H         1 PNU         0.0760
     23 H3        -11.1484  143.0996  176.2436 H         1 PNU         0.0558
     24 H4        -10.1494  141.7521  178.9273 H         1 PNU         0.0358
     25 H5        -10.3246  139.2598  179.6381 H         1 PNU         0.1127
     26 H6        -11.9924  143.8077  174.3050 H         1 PNU         0.0608
     27 H7         -5.6972  143.0951  170.9840 H         1 PNU         0.1805
     28 H8         -6.9651  142.4708  169.8953 H         1 PNU         0.1805
     29 H9        -14.1658  143.8413  173.0369 H         1 PNU         0.0264
     30 H10       -14.4196  143.1890  174.6912 H         1 PNU         0.0264
     31 H11       -14.3469  142.0717  173.2865 H         1 PNU         0.0264
@<TRIPOS>BOND
     1    1    2 ar 
     2    1    6 ar 
     3   17    1 1  
     4    2    3 ar 
     5    3    4 ar 
     6    3   18 1  
     7    5    4 ar 
     8    6    5 ar 
     9    5   19 1  
    10    8    7 ar 
    11   12    7 ar 
    12    7   14 1  
    13    9    8 ar 
    14   10    9 ar 
    15   10   11 ar 
    16   16   10 1  
    17   11   12 ar 
    18   12   13 1  
    19   13   15 2  
    20   15   14 1  
    21   16   17 1  
    22   16   20 1  
    23    4   21 1  
    24    8   22 1  
    25   11   23 1  
    26   13   24 1  
    27   15   25 1  
    28   16   26 1  
    29   18   27 1  
    30   18   28 1  
    31   20   29 1  
    32   20   30 1  
    33   20   31 1  
@<TRIPOS>SUBSTRUCTURE
     1 PNU         1

