### 
### Created by X-TOOL on Mon Sep 10 21:12:48 2018
### 

@<TRIPOS>MOLECULE
1iky_ligand
   45    47     1     0     0
SMALL
GAST_HUCK


@<TRIPOS>ATOM
      1 C2         -6.7450  144.9320  173.0870 C.ar      1 MSD         0.1060
      2 C3         -8.0380  144.4230  173.4340 C.ar      1 MSD         0.0301
      3 N4         -8.6910  143.5870  172.5340 N.ar      1 MSD        -0.2684
      4 C5         -8.1540  143.2040  171.2900 C.ar      1 MSD         0.1558
      5 C6         -6.8630  143.6820  170.9020 C.ar      1 MSD        -0.0004
      6 C7         -6.1610  144.5490  171.8060 C.ar      1 MSD        -0.0217
      7 N8         -8.9220  142.3440  170.4380 N.am      1 MSD        -0.2104
      8 C9        -10.2420  142.0310  170.5760 C.2       1 MSD         0.1712
      9 S10       -10.8040  141.2360  169.7250 S.2       1 MSD        -0.2897
     10 N11       -10.9120  142.5950  171.6400 N.am      1 MSD        -0.2721
     11 C12       -12.2980  142.3220  171.8730 C.3       1 MSD         0.0591
     12 C13       -13.0660  143.3560  172.7010 C.3       1 MSD        -0.0148
     13 C14       -13.0230  141.8170  173.0670 C.3       1 MSD         0.0170
     14 C15       -12.2260  141.4410  174.3570 C.ar      1 MSD         0.0266
     15 C16       -12.4060  140.1020  174.8280 C.ar      1 MSD         0.0904
     16 C18       -11.7190  139.6550  176.0280 C.ar      1 MSD        -0.0434
     17 C19       -10.8620  140.5310  176.7570 C.ar      1 MSD        -0.0658
     18 C20       -10.6430  141.8860  176.3210 C.ar      1 MSD         0.0435
     19 C21       -11.3270  142.3570  175.1080 C.ar      1 MSD         0.1021
     20 O22       -11.1430  143.6500  174.6600 O.3       1 MSD        -0.3341
     21 C23        -9.7100  142.8040  177.1290 C.2       1 MSD         0.1149
     22 O24        -9.5340  143.9540  176.7340 O.2       1 MSD        -0.3908
     23 C25        -8.9920  142.3540  178.3970 C.3       1 MSD         0.0069
     24 O41       -13.2240  139.2690  174.1470 O.3       1 MSD        -0.3242
     25 C42        -5.9200  145.8590  173.9610 C.1       1 MSD         0.0937
     26 N43        -5.4110  146.6420  174.6890 N.1       1 MSD        -0.3363
     27 C44       -12.9980  138.0490  173.9420 C.3       1 MSD         0.0587
     28 H1         -8.4989  144.6842  174.3797 H         1 MSD         0.0888
     29 H2         -6.4265  143.3975  169.9514 H         1 MSD         0.0628
     30 H3         -5.1817  144.9249  171.5324 H         1 MSD         0.0783
     31 H4         -8.4410  141.9319  169.6642 H         1 MSD         0.2451
     32 H5        -10.4211  143.2062  172.2608 H         1 MSD         0.1987
     33 H6        -12.7129  141.9893  170.9101 H         1 MSD         0.0600
     34 H7        -13.9878  143.8112  172.3099 H         1 MSD         0.0311
     35 H8        -12.5262  144.0913  173.3158 H         1 MSD         0.0311
     36 H9        -13.9057  141.1708  172.9520 H         1 MSD         0.0439
     37 H10       -11.8605  138.6378  176.3750 H         1 MSD         0.0454
     38 H11       -10.3681  140.1718  177.6526 H         1 MSD         0.0563
     39 H12       -10.2227  143.7904  174.4706 H         1 MSD         0.2481
     40 H13        -8.3868  143.1843  178.7899 H         1 MSD         0.0445
     41 H14        -8.3374  141.5011  178.1647 H         1 MSD         0.0445
     42 H15        -9.7339  142.0522  179.1510 H         1 MSD         0.0445
     43 H16       -13.8266  137.6148  173.3632 H         1 MSD         0.0577
     44 H17       -12.9099  137.5255  174.9054 H         1 MSD         0.0577
     45 H18       -12.0600  137.9395  173.3780 H         1 MSD         0.0577
@<TRIPOS>BOND
     1    1    2 ar 
     2    1    6 ar 
     3    1   25 1  
     4    2    3 ar 
     5    3    4 ar 
     6    4    5 ar 
     7    4    7 1  
     8    5    6 ar 
     9    7    8 am 
    10    8    9 2  
    11    8   10 am 
    12   10   11 1  
    13   11   12 1  
    14   11   13 1  
    15   12   13 1  
    16   13   14 1  
    17   14   15 ar 
    18   14   19 ar 
    19   15   16 ar 
    20   15   24 1  
    21   16   17 ar 
    22   17   18 ar 
    23   18   19 ar 
    24   18   21 1  
    25   19   20 1  
    26   21   22 2  
    27   21   23 1  
    28   24   27 1  
    29   25   26 3  
    30    2   28 1  
    31    5   29 1  
    32    6   30 1  
    33    7   31 1  
    34   10   32 1  
    35   11   33 1  
    36   12   34 1  
    37   12   35 1  
    38   13   36 1  
    39   16   37 1  
    40   17   38 1  
    41   20   39 1  
    42   23   40 1  
    43   23   41 1  
    44   23   42 1  
    45   27   43 1  
    46   27   44 1  
    47   27   45 1  
@<TRIPOS>SUBSTRUCTURE
     1 MSD         1

