### 
### Created by X-TOOL on Mon Sep 10 21:12:49 2018
### 

@<TRIPOS>MOLECULE
1il3_ligand
   17    18     1     0     0
SMALL
GAST_HUCK


@<TRIPOS>ATOM
      1 N9         -1.0790    0.5580    7.8420 N.pl3     1 7DG        -0.2860
      2 C8         -1.6900    0.9590    6.7110 C.2       1 7DG         0.0055
      3 C7         -0.7530    1.4910    5.8210 C.2       1 7DG        -0.0788
      4 C5          0.4780    1.3890    6.4690 C.2       1 7DG         0.0328
      5 C6          1.7920    1.7360    6.1280 C.2       1 7DG         0.2025
      6 O6          2.0990    2.2520    5.0770 O.2       1 7DG        -0.4082
      7 N1          2.7650    1.4720    7.0390 N.am      1 7DG        -0.1854
      8 C2          2.4990    0.8970    8.2450 C.2       1 7DG         0.2319
      9 N2          3.4650    0.6360    9.1430 N.pl3     1 7DG        -0.2816
     10 N3          1.2360    0.5640    8.5950 N.2       1 7DG        -0.2815
     11 C4          0.2360    0.8060    7.7150 C.2       1 7DG         0.0902
     12 H1         -1.5388    0.1353    8.6610 H         1 7DG         0.2296
     13 H2         -2.7589    0.8802    6.5179 H         1 7DG         0.0725
     14 H3         -0.9439    1.8994    4.8297 H         1 7DG         0.0272
     15 H4          3.7107    1.7084    6.8161 H         1 7DG         0.2507
     16 H5          3.2255    0.2001   10.0450 H         1 7DG         0.1893
     17 H6          4.4445    0.8719    8.9290 H         1 7DG         0.1893
@<TRIPOS>BOND
     1    1    2 1  
     2    1   11 1  
     3    2    3 2  
     4    3    4 1  
     5    4    5 1  
     6    4   11 2  
     7    5    6 2  
     8    5    7 am 
     9    7    8 am 
    10    8    9 1  
    11    8   10 2  
    12   10   11 1  
    13    1   12 1  
    14    2   13 1  
    15    3   14 1  
    16    7   15 1  
    17    9   16 1  
    18    9   17 1  
@<TRIPOS>SUBSTRUCTURE
     1 7DG         1

