### 
### Created by X-TOOL on Mon Sep 10 21:12:49 2018
### 

@<TRIPOS>MOLECULE
1il4_ligand
   17    18     1     0     0
SMALL
GAST_HUCK


@<TRIPOS>ATOM
      1 C9         -1.3140    0.7870    7.8100 C.2       1 9DG        -0.0681
      2 C8         -1.8760    1.0240    6.6050 C.2       1 9DG         0.0173
      3 N7         -0.9080    1.3330    5.6620 N.pl3     1 9DG        -0.2870
      4 C5          0.2690    1.2600    6.3670 C.2       1 9DG         0.1260
      5 C6          1.6980    1.4600    6.0050 C.2       1 9DG         0.2362
      6 O6          2.0390    1.7600    4.8880 O.2       1 9DG        -0.4038
      7 N1          2.5960    1.2830    7.0050 N.am      1 9DG        -0.1852
      8 C2          2.2960    0.9720    8.1850 C.2       1 9DG         0.2218
      9 N2          3.3260    0.8100    9.1260 N.pl3     1 9DG        -0.2845
     10 N3          1.0070    0.7790    8.5930 N.2       1 9DG        -0.3277
     11 C4          0.0080    0.9240    7.6810 C.2       1 9DG        -0.0146
     12 H1         -1.8452    0.5296    8.7252 H         1 9DG         0.0274
     13 H2         -2.9449    0.9785    6.4017 H         1 9DG         0.0886
     14 H3         -1.0401    1.5632    4.6668 H         1 9DG         0.2292
     15 H4          3.5642    1.4086    6.7887 H         1 9DG         0.2490
     16 H5          3.1001    0.5552   10.0981 H         1 9DG         0.1877
     17 H6          4.3073    0.9460    8.8440 H         1 9DG         0.1877
@<TRIPOS>BOND
     1    1    2 2  
     2    1   11 1  
     3    2    3 1  
     4    3    4 1  
     5    4    5 1  
     6    4   11 2  
     7    5    6 2  
     8    5    7 am 
     9    7    8 am 
    10    8    9 1  
    11    8   10 2  
    12   10   11 1  
    13    1   12 1  
    14    2   13 1  
    15    3   14 1  
    16    7   15 1  
    17    9   16 1  
    18    9   17 1  
@<TRIPOS>SUBSTRUCTURE
     1 9DG         1

