### 
### Created by X-TOOL on Mon Sep 10 21:12:49 2018
### 

@<TRIPOS>MOLECULE
1il5_ligand
   16    16     1     0     0
SMALL
GAST_HUCK


@<TRIPOS>ATOM
      1 C5        -15.3050   36.1340   39.5680 C.ar      1 DDP         0.1315
      2 N7        -14.8540   36.4110   38.2670 N.pl3     1 DDP        -0.3411
      3 C4        -14.4380   35.8540   40.6410 C.ar      1 DDP         0.1718
      4 N3        -14.9550   35.5940   41.8670 N.ar      1 DDP        -0.2589
      5 C2        -16.2850   35.5970   42.0880 C.ar      1 DDP         0.1488
      6 N2        -16.7830   35.3220   43.3700 N.pl3     1 DDP        -0.3150
      7 N1        -17.1340   35.8660   41.0640 N.ar      1 DDP        -0.2589
      8 C6        -16.6840   36.1350   39.8150 C.ar      1 DDP         0.1718
      9 O6        -17.5110   36.3600   38.9720 O.3       1 DDP        -0.3194
     10 O9        -13.0580   35.8410   40.4570 O.3       1 DDP        -0.3194
     11 H1        -13.8446   36.4158   38.0619 H         1 DDP         0.1641
     12 H2        -15.5326   36.6094   37.5180 H         1 DDP         0.1641
     13 H3        -16.1327   35.1187   44.1424 H         1 DDP         0.1784
     14 H4        -17.7990   35.3234   43.5390 H         1 DDP         0.1784
     15 H5        -18.0819   35.6061   38.8808 H         1 DDP         0.2519
     16 H6        -12.8587   36.0407   39.5498 H         1 DDP         0.2519
@<TRIPOS>BOND
     1    1    2 1  
     2    1    3 ar 
     3    1    8 ar 
     4    3    4 ar 
     5    3   10 1  
     6    4    5 ar 
     7    5    6 1  
     8    5    7 ar 
     9    7    8 ar 
    10    8    9 1  
    11    2   11 1  
    12    2   12 1  
    13    6   13 1  
    14    6   14 1  
    15    9   15 1  
    16   10   16 1  
@<TRIPOS>SUBSTRUCTURE
     1 DDP         1

