### 
### Created by X-TOOL on Mon Sep 10 21:12:49 2018
### 

@<TRIPOS>MOLECULE
1il9_ligand
   18    19     1     0     0
SMALL
GAST_HUCK


@<TRIPOS>ATOM
      1 N1          3.6780    1.6530    7.4100 N.am      1 MOG        -0.1842
      2 C2          3.6120    1.2400    8.7030 C.2       1 MOG         0.2345
      3 N3          2.4190    0.9320    9.2570 N.2       1 MOG        -0.2681
      4 C4          1.2970    1.0380    8.5140 C.2       1 MOG         0.1707
      5 C5          1.3470    1.4570    7.1900 C.2       1 MOG         0.0966
      6 C6          2.5860    1.7770    6.6220 C.2       1 MOG         0.2125
      7 O6          2.7220    2.1460    5.5060 O.2       1 MOG        -0.4101
      8 N7          0.0800    1.4390    6.7860 N.2       1 MOG        -0.3162
      9 C8         -0.6110    1.0220    7.8690 C.2       1 MOG         0.1698
     10 O9          0.0960    0.7640    8.9570 O.3       1 MOG        -0.2194
     11 C10        -2.1250    0.8560    7.8090 C.3       1 MOG         0.0216
     12 N2          4.6870    1.1130    9.5010 N.pl3     1 MOG        -0.2810
     13 H1          4.5735    1.8750    7.0242 H         1 MOG         0.2516
     14 H2         -2.4844    1.1296    6.8060 H         1 MOG         0.0475
     15 H3         -2.5956    1.5099    8.5580 H         1 MOG         0.0475
     16 H4         -2.3877   -0.1912    8.0196 H         1 MOG         0.0475
     17 H5          4.5716    0.7947   10.4738 H         1 MOG         0.1895
     18 H6          5.6258    1.3340    9.1394 H         1 MOG         0.1895
@<TRIPOS>BOND
     1    1    2 am 
     2    1    6 am 
     3    2    3 2  
     4    2   12 1  
     5    3    4 1  
     6    4    5 2  
     7    4   10 1  
     8    5    6 1  
     9    5    8 1  
    10    6    7 2  
    11    8    9 2  
    12    9   10 1  
    13    9   11 1  
    14    1   13 1  
    15   11   14 1  
    16   11   15 1  
    17   11   16 1  
    18   12   17 1  
    19   12   18 1  
@<TRIPOS>SUBSTRUCTURE
     1 MOG         1

