### 
### Created by X-TOOL on Mon Sep 10 21:12:48 2018
### 

@<TRIPOS>MOLECULE
1ilh_ligand
   75    75     1     0     0
SMALL
GAST_HUCK


@<TRIPOS>ATOM
      1 C1          7.2600   75.3910    0.2230 C.ar      1 SRL         0.0219
      2 C2          7.6440   76.7690   -0.0530 C.ar      1 SRL         0.1581
      3 C3          8.9400   77.2330   -0.5420 C.ar      1 SRL         0.0219
      4 C4          9.8790   76.1520   -0.7420 C.ar      1 SRL        -0.0011
      5 C5          9.5780   74.8060   -0.4970 C.ar      1 SRL         0.0482
      6 C6          8.3010   74.4530   -0.0230 C.ar      1 SRL        -0.0011
      7 C7         10.5460   73.7720   -0.7420 C.2       1 SRL         0.0157
      8 C8         10.5930   73.1740   -1.9050 C.2       1 SRL         0.2070
      9 P9         12.2960   72.8200   -2.5890 P.3       1 SRL         0.3078
     10 P10         9.1700   72.8040   -2.9840 P.3       1 SRL         0.3078
     11 O11         6.7340   77.6970    0.1470 O.3       1 SRL        -0.2781
     12 C12         5.8780   74.9090    0.7400 C.3       1 SRL        -0.0427
     13 C13         9.4650   78.6780   -0.8700 C.3       1 SRL        -0.0427
     14 C14         4.7920   75.2300   -0.3350 C.3       1 SRL        -0.0885
     15 C15         5.5420   75.5990    2.0900 C.3       1 SRL        -0.0885
     16 C16         5.7640   73.3440    0.9770 C.3       1 SRL        -0.0885
     17 C17         9.8840   78.7470   -2.3880 C.3       1 SRL        -0.0885
     18 C18         8.4450   79.8630   -0.6570 C.3       1 SRL        -0.0885
     19 C19        10.7410   78.9920    0.0170 C.3       1 SRL        -0.0885
     20 O20        12.4250   71.3090   -2.6570 O.2       1 SRL        -0.5353
     21 O21        13.3850   73.2560   -1.5050 O.3       1 SRL        -0.2383
     22 C22        14.6900   73.4530   -2.0410 C.3       1 SRL         0.0868
     23 C23        15.6620   73.8660   -0.9290 C.3       1 SRL        -0.0354
     24 O24        12.5910   73.2800   -4.0510 O.3       1 SRL        -0.2383
     25 C25        12.2080   74.5900   -4.3710 C.3       1 SRL         0.0868
     26 C26        12.5710   74.8790   -5.8240 C.3       1 SRL        -0.0354
     27 O27         7.8380   72.9420   -2.4490 O.2       1 SRL        -0.5353
     28 O28         9.3040   73.7240   -4.2940 O.3       1 SRL        -0.2383
     29 C29         8.0990   74.5040   -4.4970 C.3       1 SRL         0.0868
     30 C30         8.2030   75.3670   -5.7280 C.3       1 SRL        -0.0354
     31 O31         9.3960   71.3430   -3.6100 O.3       1 SRL        -0.2383
     32 C32         9.3360   70.3490   -2.6500 C.3       1 SRL         0.0868
     33 C33         9.5650   69.0360   -3.3140 C.3       1 SRL        -0.0354
     34 H1         10.8718   76.3968   -1.1018 H         1 SRL         0.1110
     35 H2          8.0986   73.4049    0.1658 H         1 SRL         0.1110
     36 H3         11.2433   73.4850    0.0437 H         1 SRL         0.0921
     37 H4          6.5603   78.1498   -0.6698 H         1 SRL         0.2826
     38 H5          3.8091   74.8912    0.0243 H         1 SRL         0.0121
     39 H6          5.0389   74.7100   -1.2723 H         1 SRL         0.0121
     40 H7          4.7628   76.3149   -0.5142 H         1 SRL         0.0121
     41 H8          6.3205   75.3577    2.8288 H         1 SRL         0.0121
     42 H9          4.5679   75.2395    2.4531 H         1 SRL         0.0121
     43 H10         5.4997   76.6885    1.9444 H         1 SRL         0.0121
     44 H11         5.9952   72.8137    0.0414 H         1 SRL         0.0121
     45 H12         4.7413   73.0950    1.2965 H         1 SRL         0.0121
     46 H13         6.4766   73.0384    1.7573 H         1 SRL         0.0121
     47 H14        10.2520   79.7570   -2.6212 H         1 SRL         0.0121
     48 H15         9.0127   78.5193   -3.0196 H         1 SRL         0.0121
     49 H16        10.6797   78.0129   -2.5825 H         1 SRL         0.0121
     50 H17         8.1090   79.8737    0.3904 H         1 SRL         0.0121
     51 H18         7.5776   79.7236   -1.3189 H         1 SRL         0.0121
     52 H19         8.9374   80.8177   -0.8939 H         1 SRL         0.0121
     53 H20        11.4793   78.1856   -0.1042 H         1 SRL         0.0121
     54 H21        10.4446   79.0619    1.0740 H         1 SRL         0.0121
     55 H22        11.1845   79.9463   -0.3034 H         1 SRL         0.0121
     56 H23        14.6538   74.2442   -2.8043 H         1 SRL         0.0630
     57 H24        15.0396   72.5164   -2.4999 H         1 SRL         0.0630
     58 H25        16.6650   74.0149   -1.3554 H         1 SRL         0.0256
     59 H26        15.7021   73.0758   -0.1648 H         1 SRL         0.0256
     60 H27        15.3162   74.8036   -0.4692 H         1 SRL         0.0256
     61 H28        12.7333   75.2979   -3.7130 H         1 SRL         0.0630
     62 H29        11.1220   74.6993   -4.2346 H         1 SRL         0.0630
     63 H30        12.2720   75.9064   -6.0792 H         1 SRL         0.0256
     64 H31        12.0457   74.1703   -6.4811 H         1 SRL         0.0256
     65 H32        13.6570   74.7688   -5.9595 H         1 SRL         0.0256
     66 H33         7.9383   75.1489   -3.6205 H         1 SRL         0.0630
     67 H34         7.2450   73.8201   -4.6106 H         1 SRL         0.0630
     68 H35         7.2742   75.9434   -5.8512 H         1 SRL         0.0256
     69 H36         8.3586   74.7294   -6.6107 H         1 SRL         0.0256
     70 H37         9.0519   76.0582   -5.6206 H         1 SRL         0.0256
     71 H38         8.3457   70.3549   -2.1713 H         1 SRL         0.0630
     72 H39        10.1120   70.5204   -1.8895 H         1 SRL         0.0630
     73 H40         9.5205   68.2329   -2.5636 H         1 SRL         0.0256
     74 H41        10.5550   69.0353   -3.7935 H         1 SRL         0.0256
     75 H42         8.7887   68.8697   -4.0753 H         1 SRL         0.0256
@<TRIPOS>BOND
     1    1    2 ar 
     2    1    6 ar 
     3    1   12 1  
     4    2    3 ar 
     5    2   11 1  
     6    3    4 ar 
     7    3   13 1  
     8    4    5 ar 
     9    5    6 ar 
    10    5    7 1  
    11    7    8 2  
    12    8    9 1  
    13    8   10 1  
    14    9   20 2  
    15    9   21 1  
    16    9   24 1  
    17   10   27 2  
    18   10   28 1  
    19   10   31 1  
    20   12   14 1  
    21   12   15 1  
    22   12   16 1  
    23   13   17 1  
    24   13   18 1  
    25   13   19 1  
    26   21   22 1  
    27   22   23 1  
    28   24   25 1  
    29   25   26 1  
    30   28   29 1  
    31   29   30 1  
    32   31   32 1  
    33   32   33 1  
    34    4   34 1  
    35    6   35 1  
    36    7   36 1  
    37   11   37 1  
    38   14   38 1  
    39   14   39 1  
    40   14   40 1  
    41   15   41 1  
    42   15   42 1  
    43   15   43 1  
    44   16   44 1  
    45   16   45 1  
    46   16   46 1  
    47   17   47 1  
    48   17   48 1  
    49   17   49 1  
    50   18   50 1  
    51   18   51 1  
    52   18   52 1  
    53   19   53 1  
    54   19   54 1  
    55   19   55 1  
    56   22   56 1  
    57   22   57 1  
    58   23   58 1  
    59   23   59 1  
    60   23   60 1  
    61   25   61 1  
    62   25   62 1  
    63   26   63 1  
    64   26   64 1  
    65   26   65 1  
    66   29   66 1  
    67   29   67 1  
    68   30   68 1  
    69   30   69 1  
    70   30   70 1  
    71   32   71 1  
    72   32   72 1  
    73   33   73 1  
    74   33   74 1  
    75   33   75 1  
@<TRIPOS>SUBSTRUCTURE
     1 SRL         1

