### 
### Created by X-TOOL on Mon Sep 10 21:12:45 2018
### 

@<TRIPOS>MOLECULE
1inc_ligand
   47    47     1     0     0
SMALL
GAST_HUCK


@<TRIPOS>ATOM
      1 C1         -8.9960   23.0670   37.9320 C.2       1 ICL         0.1169
      2 O1         -8.3630   22.0120   38.0610 O.2       1 ICL        -0.3723
      3 C2        -10.1330   23.2110   37.1540 C.ar      1 ICL         0.0636
      4 C3        -11.1320   24.0910   37.6090 C.ar      1 ICL         0.0463
      5 CL        -10.8240   25.0840   38.8990 Cl        1 ICL        -0.0684
      6 C4        -12.3700   24.0940   36.9590 C.ar      1 ICL        -0.0570
      7 C5        -12.5750   23.2980   35.8160 C.ar      1 ICL        -0.0700
      8 C6        -11.5620   22.4680   35.3270 C.ar      1 ICL        -0.0342
      9 C7        -10.3410   22.4040   35.9910 C.ar      1 ICL         0.0871
     10 N1         -9.3560   21.7460   35.2840 N.am      1 ICL        -0.2266
     11 C8         -8.1010   22.2410   35.1240 C.2       1 ICL         0.2321
     12 O2         -7.7730   23.4010   35.4460 O.2       1 ICL        -0.3809
     13 C9         -7.1340   21.5450   34.1840 C.3       1 ICL         0.1414
     14 C10        -6.2000   20.7240   35.1080 C.3       1 ICL        -0.0057
     15 C11        -4.7220   20.9070   34.7410 C.3       1 ICL        -0.0584
     16 C12        -6.6380   19.2570   35.1590 C.3       1 ICL        -0.0584
     17 N2         -6.3520   22.6080   33.4580 N.am      1 ICL        -0.2403
     18 C13        -6.6410   23.0840   32.2170 C.2       1 ICL         0.3223
     19 O3         -7.5490   22.6600   31.4700 O.2       1 ICL        -0.3774
     20 O4         -5.8010   24.0860   31.9550 O.3       1 ICL        -0.2580
     21 C14        -5.9300   24.8150   30.6550 C.3       1 ICL         0.0905
     22 C15        -7.3650   25.3830   30.4960 C.3       1 ICL        -0.0320
     23 C16        -5.5730   23.9320   29.4390 C.3       1 ICL        -0.0320
     24 C17        -4.9110   25.9710   30.7100 C.3       1 ICL        -0.0320
     25 H1         -8.6342   23.9436   38.4674 H         1 ICL         0.1299
     26 H2        -13.1760   24.7124   37.3371 H         1 ICL         0.0509
     27 H3        -13.5320   23.3292   35.3079 H         1 ICL         0.0616
     28 H4        -11.7272   21.8764   34.4338 H         1 ICL         0.0520
     29 H5         -9.5762   20.8629   34.8697 H         1 ICL         0.2292
     30 H6         -7.6585   20.8939   33.4692 H         1 ICL         0.0808
     31 H7         -6.3206   21.1253   36.1250 H         1 ICL         0.0343
     32 H8         -4.0985   20.3078   35.4209 H         1 ICL         0.0235
     33 H9         -4.4498   21.9687   34.8339 H         1 ICL         0.0235
     34 H10        -4.5576   20.5756   33.7051 H         1 ICL         0.0235
     35 H11        -7.7035   19.2016   35.4267 H         1 ICL         0.0235
     36 H12        -6.0422   18.7224   35.9134 H         1 ICL         0.0235
     37 H13        -6.4830   18.7936   34.1735 H         1 ICL         0.0235
     38 H14        -5.5571   22.9946   33.9256 H         1 ICL         0.1899
     39 H15        -7.4443   25.9155   29.5368 H         1 ICL         0.0260
     40 H16        -7.5772   26.0794   31.3206 H         1 ICL         0.0260
     41 H17        -8.0909   24.5568   30.5178 H         1 ICL         0.0260
     42 H18        -5.6854   24.5179   28.5148 H         1 ICL         0.0260
     43 H19        -6.2467   23.0631   29.4064 H         1 ICL         0.0260
     44 H20        -4.5327   23.5862   29.5297 H         1 ICL         0.0260
     45 H21        -4.9596   26.5474   29.7744 H         1 ICL         0.0260
     46 H22        -3.8980   25.5612   30.8359 H         1 ICL         0.0260
     47 H23        -5.1485   26.6291   31.5588 H         1 ICL         0.0260
@<TRIPOS>BOND
     1    1    2 2  
     2    1    3 1  
     3    3    4 ar 
     4    3    9 ar 
     5    4    5 1  
     6    4    6 ar 
     7    6    7 ar 
     8    7    8 ar 
     9    8    9 ar 
    10    9   10 1  
    11   10   11 am 
    12   11   12 2  
    13   11   13 1  
    14   13   14 1  
    15   13   17 1  
    16   14   15 1  
    17   14   16 1  
    18   17   18 am 
    19   18   19 2  
    20   18   20 1  
    21   20   21 1  
    22   21   22 1  
    23   21   23 1  
    24   21   24 1  
    25    1   25 1  
    26    6   26 1  
    27    7   27 1  
    28    8   28 1  
    29   10   29 1  
    30   13   30 1  
    31   14   31 1  
    32   15   32 1  
    33   15   33 1  
    34   15   34 1  
    35   16   35 1  
    36   16   36 1  
    37   16   37 1  
    38   17   38 1  
    39   22   39 1  
    40   22   40 1  
    41   22   41 1  
    42   23   42 1  
    43   23   43 1  
    44   23   44 1  
    45   24   45 1  
    46   24   46 1  
    47   24   47 1  
@<TRIPOS>SUBSTRUCTURE
     1 ICL         1

