### 
### Created by X-TOOL on Mon Sep 10 21:12:45 2018
### 

@<TRIPOS>MOLECULE
1ind_ligand
   60    60     1     0     0
SMALL
GAST_HUCK


@<TRIPOS>ATOM
      1 C15        61.6180    1.3390   37.4210 C.ar      1 EOT         0.0661
      2 C16        60.9970    2.4350   38.0310 C.ar      1 EOT        -0.0451
      3 C17        59.9180    2.2660   38.8940 C.ar      1 EOT        -0.0720
      4 C12        59.4470    0.9830   39.1620 C.ar      1 EOT        -0.0512
      5 C13        60.0610   -0.1080   38.5600 C.ar      1 EOT        -0.0720
      6 C14        61.1320    0.0680   37.6960 C.ar      1 EOT        -0.0451
      7 N3         62.6520    1.4380   36.5750 N.am      1 EOT        -0.2356
      8 C18        63.8050    2.0520   36.8620 C.2       1 EOT         0.1609
      9 S1         64.1550    2.6720   38.3770 S.2       1 EOT        -0.2981
     10 N4         64.6880    2.1430   35.8780 N.am      1 EOT        -0.2767
     11 C19        65.9650    2.8440   36.0550 C.3       1 EOT         0.0600
     12 C20        66.3530    3.5290   34.7390 C.3       1 EOT         0.0660
     13 O9         67.6080    4.1680   34.9190 O.3       1 EOT        -0.3928
     14 C11        58.3030    0.7790   40.0730 C.3       1 EOT         0.0227
     15 C1         56.9020    1.0440   39.4940 C.3       1 EOT         0.0304
     16 C2         56.4870   -0.1220   38.5490 C.3       1 EOT         0.0166
     17 N1         55.8850    1.1730   40.5680 N.4       1 EOT         0.2654
     18 C9         55.9110    2.4720   41.2660 C.3       1 EOT         0.0231
     19 C10        55.4600    3.6140   40.3650 C.2       1 EOT         0.0813
     20 O7         54.5060    3.2880   39.4710 O.co2     1 EOT        -0.5645
     21 O8         55.9870    4.7200   40.4260 O.co2     1 EOT        -0.5645
     22 C7         55.9170    0.0200   41.4600 C.3       1 EOT         0.0231
     23 C8         54.6780    0.0350   42.3430 C.2       1 EOT         0.0813
     24 O5         53.6000    0.6140   41.7730 O.co2     1 EOT        -0.5645
     25 O6         54.7110   -0.3880   43.4970 O.co2     1 EOT        -0.5645
     26 N2         55.1520    0.0110   37.9400 N.4       1 EOT         0.2624
     27 C5         54.6750   -1.3530   37.6030 C.3       1 EOT         0.0227
     28 C6         53.3180   -1.7070   38.2250 C.2       1 EOT         0.0813
     29 O3         52.9780   -1.0160   39.3240 O.co2     1 EOT        -0.5645
     30 O4         52.6100   -2.5970   37.7540 O.co2     1 EOT        -0.5645
     31 C3         55.1460    0.8730   36.7330 C.3       1 EOT         0.0227
     32 C4         53.7340    1.3060   36.3600 C.2       1 EOT         0.0813
     33 O1         52.8470    1.2220   37.3740 O.co2     1 EOT        -0.5645
     34 O2         53.4350    1.6620   35.2190 O.co2     1 EOT        -0.5645
     35 H1         61.3634    3.4347   37.8275 H         1 EOT         0.0497
     36 H2         59.4475    3.1272   39.3544 H         1 EOT         0.0522
     37 H3         59.6991   -1.1085   38.7678 H         1 EOT         0.0522
     38 H4         61.5939   -0.7954   37.2310 H         1 EOT         0.0497
     39 H5         62.5554    1.0256   35.6691 H         1 EOT         0.2335
     40 H6         64.4792    1.7242   34.9942 H         1 EOT         0.1978
     41 H7         66.7449    2.1215   36.3371 H         1 EOT         0.0565
     42 H8         65.8623    3.6006   36.8468 H         1 EOT         0.0565
     43 H9         65.5913    4.2756   34.4702 H         1 EOT         0.0579
     44 H10        66.4297    2.7787   33.9383 H         1 EOT         0.0579
     45 H11        67.8622    4.5976   34.1107 H         1 EOT         0.2095
     46 H12        58.4396    1.4490   40.9347 H         1 EOT         0.0457
     47 H13        58.3305   -0.2666   40.4135 H         1 EOT         0.0457
     48 H14        56.9318    1.9811   38.9188 H         1 EOT         0.0926
     49 H15        56.5042   -1.0550   39.1314 H         1 EOT         0.0873
     50 H16        57.2270   -0.1826   37.7374 H         1 EOT         0.0873
     51 H17        54.9902    1.1382   40.1053 H         1 EOT         0.2068
     52 H18        56.9380    2.6721   41.6054 H         1 EOT         0.0989
     53 H19        55.2405    2.4207   42.1365 H         1 EOT         0.0989
     54 H20        56.8178    0.0669   42.0896 H         1 EOT         0.0989
     55 H21        55.9333   -0.9050   40.8650 H         1 EOT         0.0989
     56 H22        54.5291    0.4203   38.6186 H         1 EOT         0.2064
     57 H23        55.4201   -2.0789   37.9606 H         1 EOT         0.0989
     58 H24        54.5851   -1.4284   36.5093 H         1 EOT         0.0989
     59 H25        55.5814    0.3130   35.8923 H         1 EOT         0.0989
     60 H26        55.7534    1.7685   36.9309 H         1 EOT         0.0989
@<TRIPOS>BOND
     1    1    2 ar 
     2    1    6 ar 
     3    1    7 1  
     4    2    3 ar 
     5    3    4 ar 
     6    4    5 ar 
     7    4   14 1  
     8    5    6 ar 
     9    7    8 am 
    10    8    9 2  
    11    8   10 am 
    12   10   11 1  
    13   11   12 1  
    14   12   13 1  
    15   14   15 1  
    16   15   16 1  
    17   15   17 1  
    18   16   26 1  
    19   17   18 1  
    20   17   22 1  
    21   18   19 1  
    22   19   20 ar 
    23   19   21 ar 
    24   22   23 1  
    25   23   24 ar 
    26   23   25 ar 
    27   26   27 1  
    28   26   31 1  
    29   27   28 1  
    30   28   29 ar 
    31   28   30 ar 
    32   31   32 1  
    33   32   33 ar 
    34   32   34 ar 
    35    2   35 1  
    36    3   36 1  
    37    5   37 1  
    38    6   38 1  
    39    7   39 1  
    40   10   40 1  
    41   11   41 1  
    42   11   42 1  
    43   12   43 1  
    44   12   44 1  
    45   13   45 1  
    46   14   46 1  
    47   14   47 1  
    48   15   48 1  
    49   16   49 1  
    50   16   50 1  
    51   17   51 1  
    52   18   52 1  
    53   18   53 1  
    54   22   54 1  
    55   22   55 1  
    56   26   56 1  
    57   27   57 1  
    58   27   58 1  
    59   31   59 1  
    60   31   60 1  
@<TRIPOS>SUBSTRUCTURE
     1 EOT         1

