### 
### Created by X-TOOL on Mon Sep 10 21:12:45 2018
### 

@<TRIPOS>MOLECULE
1inf_ligand
   29    29     1     0     0
SMALL
GAST_HUCK


@<TRIPOS>ATOM
      1 C'         33.1050  -12.4580   65.9980 C.2       1 ST4         0.0819
      2 O1'        34.0300  -12.5250   66.8260 O.co2     1 ST4        -0.5534
      3 O2'        32.3620  -13.4370   65.7300 O.co2     1 ST4        -0.5534
      4 C1         32.8880  -11.2680   65.3080 C.ar      1 ST4         0.0406
      5 C2         31.6060  -10.9310   64.8860 C.ar      1 ST4         0.0274
      6 C3         31.3880   -9.8400   64.0720 C.ar      1 ST4         0.1754
      7 N3         30.1070   -9.5670   63.6370 N.pl3     1 ST4        -0.2609
      8 C3'        29.3990  -10.4570   62.9490 C.cat     1 ST4         0.1480
      9 N1         28.1950  -10.1450   62.4930 N.pl3     1 ST4        -0.3533
     10 N2         29.9080  -11.6440   62.6720 N.pl3     1 ST4        -0.3533
     11 C4         32.4760   -9.0450   63.6690 C.ar      1 ST4         0.2179
     12 N4         32.2970   -7.9780   62.7840 N.am      1 ST4        -0.1620
     13 C4'        31.4600   -6.9730   63.0050 C.2       1 ST4         0.2665
     14 O4         30.8700   -6.8440   64.0770 O.2       1 ST4        -0.3431
     15 CM4        31.3110   -5.8990   61.9640 C.3       1 ST4         0.0480
     16 C5         33.7490   -9.3650   64.1120 C.ar      1 ST4         0.0289
     17 C6         33.9470  -10.4570   64.9240 C.ar      1 ST4        -0.0164
     18 H1         30.7644  -11.5364   65.2025 H         1 ST4         0.0688
     19 H2         29.6890   -8.6503   63.8509 H         1 ST4         0.2213
     20 H3         27.6504  -10.8383   61.9604 H         1 ST4         0.1652
     21 H4         27.8034   -9.2091   62.6711 H         1 ST4         0.1652
     22 H5         30.8432  -11.8975   63.0212 H         1 ST4         0.1652
     23 H6         29.3697  -12.3160   62.1068 H         1 ST4         0.1652
     24 H7         32.8293   -7.9720   61.9375 H         1 ST4         0.3111
     25 H8         30.5822   -5.1514   62.3103 H         1 ST4         0.0488
     26 H9         30.9582   -6.3466   61.0232 H         1 ST4         0.0488
     27 H10        32.2835   -5.4130   61.7968 H         1 ST4         0.0488
     28 H11        34.5929   -8.7518   63.8172 H         1 ST4         0.0750
     29 H12        34.9478  -10.6885   65.2703 H         1 ST4         0.0777
@<TRIPOS>BOND
     1    4    1 1  
     2    1    3 ar 
     3    1    2 ar 
     4    4   17 ar 
     5    4    5 ar 
     6    5    6 ar 
     7    6   11 ar 
     8    6    7 1  
     9    7    8 ar 
    10    8   10 ar 
    11    8    9 ar 
    12   11   16 ar 
    13   11   12 1  
    14   12   13 am 
    15   13   15 1  
    16   13   14 2  
    17   16   17 ar 
    18    5   18 1  
    19    7   19 1  
    20    9   20 1  
    21    9   21 1  
    22   10   22 1  
    23   10   23 1  
    24   12   24 1  
    25   15   25 1  
    26   15   26 1  
    27   15   27 1  
    28   16   28 1  
    29   17   29 1  
@<TRIPOS>SUBSTRUCTURE
     1 ST4         1

