### 
### Created by X-TOOL on Mon Sep 10 21:12:45 2018
### 

@<TRIPOS>MOLECULE
1ing_ligand
   29    29     1     0     0
SMALL
GAST_HUCK


@<TRIPOS>ATOM
      1 C'         49.1170   23.6840  -20.5200 C.2       1 ST5         0.0493
      2 O1'        49.0720   23.8560  -19.2830 O.co2     1 ST5        -0.5649
      3 O2'        49.9160   24.3120  -21.2490 O.co2     1 ST5        -0.5649
      4 C1         48.2720   22.7390  -21.1080 C.ar      1 ST5        -0.0193
      5 C2         48.0070   22.7710  -22.4760 C.ar      1 ST5        -0.0398
      6 C3         47.1870   21.8180  -23.0800 C.ar      1 ST5         0.0933
      7 N3         46.8880   21.9360  -24.4280 N.am      1 ST5        -0.2362
      8 C3'        46.2500   23.0170  -24.8760 C.2       1 ST5         0.2261
      9 O3         45.3990   23.6120  -24.2160 O.2       1 ST5        -0.3840
     10 CM3        46.5820   23.4910  -26.2740 C.3       1 ST5         0.1383
     11 O3'        45.8390   24.6660  -26.5730 O.3       1 ST5        -0.3742
     12 C4         46.6210   20.8020  -22.2960 C.ar      1 ST5         0.0931
     13 N4         45.8390   19.8040  -22.8530 N.am      1 ST5        -0.2368
     14 C4'        46.3160   18.9890  -23.7950 C.2       1 ST5         0.1983
     15 O4         47.4860   19.0580  -24.1850 O.2       1 ST5        -0.3863
     16 CM4        45.4180   17.9120  -24.3710 C.3       1 ST5         0.0312
     17 C5         46.8820   20.7720  -20.9330 C.ar      1 ST5        -0.0495
     18 C6         47.6990   21.7270  -20.3470 C.ar      1 ST5        -0.0765
     19 H1         48.4476   23.5532  -23.0835 H         1 ST5         0.0481
     20 H2         47.1508   21.2106  -25.0642 H         1 ST5         0.2216
     21 H3         46.3258   22.7029  -26.9974 H         1 ST5         0.0805
     22 H4         47.6575   23.7126  -26.3388 H         1 ST5         0.0805
     23 H5         44.9101   24.4746  -26.5178 H         1 ST5         0.2130
     24 H6         44.8953   19.6918  -22.5419 H         1 ST5         0.2230
     25 H7         45.9723   17.3391  -25.1290 H         1 ST5         0.0471
     26 H8         44.5372   18.3789  -24.8360 H         1 ST5         0.0471
     27 H9         45.0929   17.2364  -23.5661 H         1 ST5         0.0471
     28 H10        46.4424   19.9935  -20.3200 H         1 ST5         0.0461
     29 H11        47.8933   21.6837  -19.2814 H         1 ST5         0.0486
@<TRIPOS>BOND
     1    4    1 1  
     2    1    3 ar 
     3    1    2 ar 
     4    4   18 ar 
     5    4    5 ar 
     6    5    6 ar 
     7    6   12 ar 
     8    6    7 1  
     9    7    8 am 
    10    8   10 1  
    11    8    9 2  
    12   10   11 1  
    13   12   17 ar 
    14   12   13 1  
    15   13   14 am 
    16   14   16 1  
    17   14   15 2  
    18   17   18 ar 
    19    5   19 1  
    20    7   20 1  
    21   10   21 1  
    22   10   22 1  
    23   11   23 1  
    24   13   24 1  
    25   16   25 1  
    26   16   26 1  
    27   16   27 1  
    28   17   28 1  
    29   18   29 1  
@<TRIPOS>SUBSTRUCTURE
     1 ST5         1

