### 
### Created by X-TOOL on Mon Sep 10 21:12:45 2018
### 

@<TRIPOS>MOLECULE
1inh_ligand
   31    31     1     0     0
SMALL
GAST_HUCK


@<TRIPOS>ATOM
      1 C'         49.1590   22.8940  -20.3130 C.2       1 ST6         0.0493
      2 O1'        48.8090   24.0970  -20.3000 O.co2     1 ST6        -0.5649
      3 O2'        50.1610   22.4630  -19.7150 O.co2     1 ST6        -0.5649
      4 C1         48.4220   22.0010  -21.0640 C.ar      1 ST6        -0.0193
      5 C2         48.0050   22.3500  -22.3260 C.ar      1 ST6        -0.0398
      6 C3         47.1900   21.5240  -23.0560 C.ar      1 ST6         0.0934
      7 N3         46.7040   21.9540  -24.2500 N.am      1 ST6        -0.2337
      8 C3'        45.4800   22.4630  -24.2410 C.2       1 ST6         0.2457
      9 O3         44.6760   22.2600  -23.3220 O.2       1 ST6        -0.3807
     10 CM3        45.0710   23.3040  -25.3850 C.3       1 ST6         0.0596
     11 N3'        43.9630   24.1370  -24.8820 N.4       1 ST6         0.2360
     12 C4         46.7520   20.3250  -22.5170 C.ar      1 ST6         0.0931
     13 N4         45.8800   19.5340  -23.2300 N.am      1 ST6        -0.2368
     14 C4'        46.3100   18.6060  -24.0750 C.2       1 ST6         0.1983
     15 O4         47.5120   18.3860  -24.2480 O.2       1 ST6        -0.3863
     16 CM4        45.2900   17.7760  -24.8320 C.3       1 ST6         0.0312
     17 C5         47.1760   19.9470  -21.2600 C.ar      1 ST6        -0.0495
     18 C6         47.9950   20.7870  -20.5260 C.ar      1 ST6        -0.0765
     19 H1         48.3258   23.2941  -22.7513 H         1 ST6         0.0481
     20 H2         47.2413   21.8898  -25.0910 H         1 ST6         0.2217
     21 H3         44.7313   22.6764  -26.2221 H         1 ST6         0.1066
     22 H4         45.9079   23.9361  -25.7166 H         1 ST6         0.1066
     23 H5         43.6343   24.7400  -25.6198 H         1 ST6         0.2012
     24 H6         44.2877   24.6974  -24.1096 H         1 ST6         0.2012
     25 H7         43.2096   23.5430  -24.5728 H         1 ST6         0.2012
     26 H8         44.8958   19.6622  -23.1078 H         1 ST6         0.2230
     27 H9         45.8114   17.0597  -25.4840 H         1 ST6         0.0471
     28 H10        44.6602   18.4381  -25.4444 H         1 ST6         0.0471
     29 H11        44.6590   17.2284  -24.1165 H         1 ST6         0.0471
     30 H12        46.8680   18.9930  -20.8476 H         1 ST6         0.0461
     31 H13        48.3062   20.5001  -19.5280 H         1 ST6         0.0486
@<TRIPOS>BOND
     1    1    2 ar 
     2    1    3 ar 
     3    1    4 1  
     4    4    5 ar 
     5    4   18 ar 
     6    5    6 ar 
     7    6    7 1  
     8    6   12 ar 
     9    7    8 am 
    10    8    9 2  
    11    8   10 1  
    12   10   11 1  
    13   12   13 1  
    14   12   17 ar 
    15   13   14 am 
    16   14   15 2  
    17   14   16 1  
    18   17   18 ar 
    19    5   19 1  
    20    7   20 1  
    21   10   21 1  
    22   10   22 1  
    23   11   23 1  
    24   11   24 1  
    25   11   25 1  
    26   13   26 1  
    27   16   27 1  
    28   16   28 1  
    29   16   29 1  
    30   17   30 1  
    31   18   31 1  
@<TRIPOS>SUBSTRUCTURE
     1 ST6         1

