### 
### Created by X-TOOL on Mon Sep 10 21:12:49 2018
### 

@<TRIPOS>MOLECULE
1iup_ligand
   13    12     1     0     0
SMALL
GAST_HUCK


@<TRIPOS>ATOM
      1 CA          3.5750   29.6540   -1.7730 C.3       1 ALQ         0.0061
      2 C           2.9390   28.7700   -0.6640 C.2       1 ALQ         0.0373
      3 O1          2.9140   29.1620    0.5680 O.co2     1 ALQ        -0.5687
      4 O2          2.4220   27.6280   -0.9760 O.co2     1 ALQ        -0.5687
      5 CB1         4.8610   28.9920   -2.2980 C.3       1 ALQ        -0.0510
      6 CB2         3.9050   31.0670   -1.2350 C.3       1 ALQ        -0.0510
      7 H1          2.8579   29.7495   -2.6016 H         1 ALQ         0.0461
      8 H2          5.3047   29.6234   -3.0819 H         1 ALQ         0.0250
      9 H3          4.6202   28.0034   -2.7160 H         1 ALQ         0.0250
     10 H4          5.5775   28.8760   -1.4715 H         1 ALQ         0.0250
     11 H5          2.9857   31.5403   -0.8597 H         1 ALQ         0.0250
     12 H6          4.3276   31.6786   -2.0458 H         1 ALQ         0.0250
     13 H7          4.6362   30.9865   -0.4171 H         1 ALQ         0.0250
@<TRIPOS>BOND
     1    1    6 1  
     2    1    5 1  
     3    1    2 1  
     4    2    4 ar 
     5    2    3 ar 
     6    1    7 1  
     7    5    8 1  
     8    5    9 1  
     9    5   10 1  
    10    6   11 1  
    11    6   12 1  
    12    6   13 1  
@<TRIPOS>SUBSTRUCTURE
     1 ALQ         1

