### 
### Created by X-TOOL on Mon Sep 10 21:12:45 2018
### 

@<TRIPOS>MOLECULE
1ivp_ligand
  118   122     1     0     0
SMALL
GAST_HUCK


@<TRIPOS>ATOM
      1 C           4.3120   13.0860   17.8600 C.2       1 1ZK         0.2097
      2 CA          4.5330   11.6570   18.3720 C.3       1 1ZK         0.1610
      3 C1          5.0990   10.6100   20.5500 C.ar      1 1ZK         0.1075
      4 C2          6.4130   10.4110   21.0130 C.ar      1 1ZK        -0.0338
      5 C3          6.7060    9.3200   21.8500 C.ar      1 1ZK        -0.0744
      6 C4          5.6940    8.4370   22.2280 C.ar      1 1ZK        -0.0685
      7 C4A         4.3850    8.6450   21.7780 C.ar      1 1ZK        -0.0261
      8 C5          3.3790    7.7400   22.1650 C.ar      1 1ZK        -0.0587
      9 C6          2.0670    7.9340   21.7030 C.ar      1 1ZK        -0.0640
     10 C7          1.7710    9.0280   20.8690 C.ar      1 1ZK        -0.0633
     11 C8          2.7860    9.9260   20.5040 C.ar      1 1ZK        -0.0532
     12 C1A         4.0980    9.7330   20.9480 C.ar      1 1ZK         0.0180
     13 O           5.1550   13.6790   17.1600 O.2       1 1ZK        -0.3939
     14 O1          4.8710   11.6780   19.7530 O.3       1 1ZK        -0.2926
     15 N           3.1570   13.6200   18.2060 N.am      1 1ZK        -0.2615
     16 CA          2.7010   14.9680   17.8130 C.3       1 1ZK         0.1421
     17 C           2.0750   15.5850   19.0560 C.2       1 1ZK         0.2060
     18 O           0.9020   15.2910   19.3640 O.2       1 1ZK        -0.3942
     19 CB          1.6250   14.8200   16.6890 C.3       1 1ZK         0.0427
     20 CG          2.1920   13.9710   15.5850 C.2       1 1ZK         0.0561
     21 ND1         2.3200   12.6150   15.6390 N.pl3     1 1ZK        -0.2623
     22 CD2         2.7260   14.3230   14.3920 C.2       1 1ZK        -0.0276
     23 CE1         2.9060   12.1620   14.5430 C.2       1 1ZK         0.0875
     24 NE2         3.1610   13.1940   13.7710 N.2       1 1ZK        -0.3437
     25 N           2.8800   16.3830   19.7500 N.am      1 1ZK        -0.2646
     26 CA          2.4090   17.0220   20.9960 C.3       1 1ZK         0.1179
     27 CB          2.9640   16.5500   22.1960 C.3       1 1ZK        -0.0106
     28 CG          3.3830   15.0800   22.2290 C.3       1 1ZK        -0.0368
     29 CD1         2.7940   14.3900   23.4790 C.3       1 1ZK        -0.0500
     30 CD2         4.9300   15.0460   22.2920 C.3       1 1ZK        -0.0500
     31 CE1         3.2540   12.9110   23.4550 C.3       1 1ZK        -0.0528
     32 CE2         5.4940   13.6560   22.5120 C.3       1 1ZK        -0.0528
     33 CZ          4.7900   12.9010   23.6310 C.3       1 1ZK        -0.0530
     34 C           2.3810   18.5440   20.8500 C.2       1 1ZK         0.1612
     35 O           3.3200   19.3370   20.8870 O.2       1 1ZK        -0.3862
     36 CB1         1.1930   18.8910   19.9490 C.3       1 1ZK         0.1495
     37 CA'         0.4920   20.1180   20.5320 C.3       1 1ZK         0.0930
     38 CB'        -0.5930   20.4460   19.5640 C.3       1 1ZK        -0.0223
     39 CG1        -1.5270   19.3100   19.0940 C.3       1 1ZK        -0.0601
     40 CG2        -1.4400   21.6370   19.9860 C.3       1 1ZK        -0.0601
     41 OB1         1.7200   19.1410   18.6310 O.3       1 1ZK        -0.3697
     42 C'         -0.1230   19.8000   21.9130 C.2       1 1ZK         0.1864
     43 O'         -0.3070   18.6680   22.4010 O.2       1 1ZK        -0.3964
     44 N          -0.4460   20.9050   22.5470 N.am      1 1ZK        -0.2649
     45 CA         -1.1000   21.1330   23.8160 C.3       1 1ZK         0.1335
     46 C          -1.6790   22.5550   23.7020 C.2       1 1ZK         0.2040
     47 O          -1.1290   23.5870   24.1010 O.2       1 1ZK        -0.3944
     48 CB         -0.4120   20.7010   25.1240 C.3       1 1ZK        -0.0037
     49 CG1        -0.8880   21.6130   26.2850 C.3       1 1ZK        -0.0491
     50 CG2         1.1100   20.5030   25.1220 C.3       1 1ZK        -0.0582
     51 CD1        -2.4300   21.7410   26.3820 C.3       1 1ZK        -0.0648
     52 N          -2.8430   22.5550   23.0740 N.am      1 1ZK        -0.2713
     53 CM         -3.6780   23.7070   22.7560 C.3       1 1ZK         0.0798
     54 C2         -5.0570   23.2730   22.3810 C.ar      1 1ZK         0.0502
     55 C3         -5.4700   21.9370   22.4920 C.ar      1 1ZK        -0.0304
     56 C4         -6.7840   21.5870   22.1640 C.ar      1 1ZK        -0.0488
     57 C5         -7.6630   22.5850   21.7120 C.ar      1 1ZK        -0.0410
     58 C6         -7.2010   23.9070   21.6250 C.ar      1 1ZK         0.0028
     59 N1         -5.9330   24.1960   21.9500 N.ar      1 1ZK        -0.2960
     60 H1          5.3514   11.1900   17.8045 H         1 1ZK         0.0864
     61 H2          3.6107   11.0741   18.2323 H         1 1ZK         0.0864
     62 H3          7.1993   11.0990   20.7242 H         1 1ZK         0.0499
     63 H4          7.7194    9.1647   22.2021 H         1 1ZK         0.0581
     64 H5          5.9208    7.5923   22.8684 H         1 1ZK         0.0493
     65 H6          3.6141    6.9028   22.8122 H         1 1ZK         0.0599
     66 H7          1.2832    7.2417   21.9886 H         1 1ZK         0.0614
     67 H8          0.7596    9.1771   20.5086 H         1 1ZK         0.0591
     68 H9          2.5512   10.7757   19.8731 H         1 1ZK         0.0631
     69 H10         2.5453   13.0718   18.7763 H         1 1ZK         0.1885
     70 H11         3.5423   15.5805   17.4564 H         1 1ZK         0.0824
     71 H12         1.3632   15.8129   16.2946 H         1 1ZK         0.0491
     72 H13         0.7248   14.3395   17.0998 H         1 1ZK         0.0491
     73 H14         2.0048   12.0259   16.4229 H         1 1ZK         0.2386
     74 H15         2.7953   15.3357   13.9975 H         1 1ZK         0.0324
     75 H16         3.1357   11.1210   14.3206 H         1 1ZK         0.1149
     76 H17         3.8110   16.5521   19.4265 H         1 1ZK         0.1884
     77 H18         1.3511   16.7297   21.0691 H         1 1ZK         0.0792
     78 H19         2.2182   16.7016   22.9902 H         1 1ZK         0.0316
     79 H20         3.8568   17.1556   22.4109 H         1 1ZK         0.0316
     80 H21         3.0294   14.5658   21.3232 H         1 1ZK         0.0303
     81 H22         1.6955   14.4420   23.4541 H         1 1ZK         0.0268
     82 H23         3.1640   14.8835   24.3898 H         1 1ZK         0.0268
     83 H24         5.2594   15.6908   23.1201 H         1 1ZK         0.0268
     84 H25         5.3262   15.4367   21.3431 H         1 1ZK         0.0268
     85 H26         2.9828   12.4485   22.4945 H         1 1ZK         0.0265
     86 H27         2.7779   12.3559   24.2767 H         1 1ZK         0.0265
     87 H28         5.3866   13.0821   21.5797 H         1 1ZK         0.0265
     88 H29         6.5604   13.7462   22.7663 H         1 1ZK         0.0265
     89 H30         5.1411   11.8586   23.6325 H         1 1ZK         0.0265
     90 H31         5.0411   13.3739   24.5919 H         1 1ZK         0.0265
     91 H32         0.4841   18.0508   19.9093 H         1 1ZK         0.0858
     92 H33         1.1977   20.9565   20.6260 H         1 1ZK         0.0593
     93 H34        -0.0558   20.7637   18.6582 H         1 1ZK         0.0325
     94 H35        -2.2676   19.7129   18.3874 H         1 1ZK         0.0234
     95 H36        -2.0459   18.8788   19.9628 H         1 1ZK         0.0234
     96 H37        -0.9330   18.5290   18.5968 H         1 1ZK         0.0234
     97 H38        -0.7835   22.4528   20.3230 H         1 1ZK         0.0234
     98 H39        -2.1069   21.3396   20.8086 H         1 1ZK         0.0234
     99 H40        -2.0420   21.9800   19.1316 H         1 1ZK         0.0234
    100 H41         2.3349   19.8642   18.6690 H         1 1ZK         0.2136
    101 H42        -0.1927   21.7423   22.0624 H         1 1ZK         0.1883
    102 H43        -1.9790   20.4720   23.7962 H         1 1ZK         0.0803
    103 H44        -0.8157   19.7003   25.3376 H         1 1ZK         0.0345
    104 H45        -0.4646   22.6170   26.1345 H         1 1ZK         0.0267
    105 H46        -0.5136   21.1952   27.2312 H         1 1ZK         0.0267
    106 H47         1.3938   19.8513   24.2825 H         1 1ZK         0.0235
    107 H48         1.4204   20.0372   26.0689 H         1 1ZK         0.0235
    108 H49         1.6065   21.4785   25.0131 H         1 1ZK         0.0235
    109 H50        -2.6910   22.3993   27.2237 H         1 1ZK         0.0230
    110 H51        -2.8711   20.7464   26.5440 H         1 1ZK         0.0230
    111 H52        -2.8220   22.1682   25.4472 H         1 1ZK         0.0230
    112 H53        -3.1899   21.6630   22.7842 H         1 1ZK         0.1882
    113 H54        -3.2308   24.2555   21.9139 H         1 1ZK         0.0713
    114 H55        -3.7336   24.3661   23.6349 H         1 1ZK         0.0713
    115 H56        -4.7734   21.1786   22.8307 H         1 1ZK         0.0652
    116 H57        -7.1191   20.5603   22.2573 H         1 1ZK         0.0719
    117 H58        -8.6815   22.3379   21.4350 H         1 1ZK         0.0652
    118 H59        -7.8691   24.6943   21.2951 H         1 1ZK         0.0803
@<TRIPOS>BOND
     1    1   13 2  
     2    1    2 1  
     3    2   14 1  
     4   14    3 1  
     5    3   12 ar 
     6    3    4 ar 
     7    4    5 ar 
     8    5    6 ar 
     9    7    6 ar 
    10   12    7 ar 
    11    7    8 ar 
    12    8    9 ar 
    13   10    9 ar 
    14   11   10 ar 
    15   12   11 ar 
    16   17   16 1  
    17   16   19 1  
    18   16   15 1  
    19   19   20 1  
    20   20   22 2  
    21   20   21 1  
    22   21   23 1  
    23   23   24 2  
    24   22   24 1  
    25   17   18 2  
    26   26   25 1  
    27   34   26 1  
    28   26   27 1  
    29   27   28 1  
    30   28   30 1  
    31   28   29 1  
    32   29   31 1  
    33   31   33 1  
    34   32   33 1  
    35   30   32 1  
    36   36   34 1  
    37   34   35 2  
    38   36   41 1  
    39   37   36 1  
    40   42   37 1  
    41   37   38 1  
    42   38   40 1  
    43   38   39 1  
    44   42   43 2  
    45   46   45 1  
    46   45   48 1  
    47   45   44 1  
    48   48   49 1  
    49   48   50 1  
    50   49   51 1  
    51   46   47 2  
    52   52   53 1  
    53   53   54 1  
    54   54   59 ar 
    55   54   55 ar 
    56   55   56 ar 
    57   56   57 ar 
    58   58   57 ar 
    59   59   58 ar 
    60   15    1 am 
    61   25   17 am 
    62   44   42 am 
    63   46   52 am 
    64    2   60 1  
    65    2   61 1  
    66    4   62 1  
    67    5   63 1  
    68    6   64 1  
    69    8   65 1  
    70    9   66 1  
    71   10   67 1  
    72   11   68 1  
    73   15   69 1  
    74   16   70 1  
    75   19   71 1  
    76   19   72 1  
    77   21   73 1  
    78   22   74 1  
    79   23   75 1  
    80   25   76 1  
    81   26   77 1  
    82   27   78 1  
    83   27   79 1  
    84   28   80 1  
    85   29   81 1  
    86   29   82 1  
    87   30   83 1  
    88   30   84 1  
    89   31   85 1  
    90   31   86 1  
    91   32   87 1  
    92   32   88 1  
    93   33   89 1  
    94   33   90 1  
    95   36   91 1  
    96   37   92 1  
    97   38   93 1  
    98   39   94 1  
    99   39   95 1  
   100   39   96 1  
   101   40   97 1  
   102   40   98 1  
   103   40   99 1  
   104   41  100 1  
   105   44  101 1  
   106   45  102 1  
   107   48  103 1  
   108   49  104 1  
   109   49  105 1  
   110   50  106 1  
   111   50  107 1  
   112   50  108 1  
   113   51  109 1  
   114   51  110 1  
   115   51  111 1  
   116   52  112 1  
   117   53  113 1  
   118   53  114 1  
   119   55  115 1  
   120   56  116 1  
   121   57  117 1  
   122   58  118 1  
@<TRIPOS>SUBSTRUCTURE
     1 1ZK         1

