### 
### Created by X-TOOL on Mon Sep 10 21:12:49 2018
### 

@<TRIPOS>MOLECULE
1iy7_ligand
   27    27     1     0     0
SMALL
GAST_HUCK


@<TRIPOS>ATOM
      1 C1          5.5640   -9.5750   12.5890 C.ar      1 CXA        -0.0396
      2 C2          6.4700   -8.6550   11.9840 C.ar      1 CXA        -0.0602
      3 C3          6.1860   -8.0880   10.7100 C.ar      1 CXA        -0.0686
      4 C4          4.9950   -8.4330   10.0260 C.ar      1 CXA        -0.0687
      5 C5          4.0960   -9.3430   10.6130 C.ar      1 CXA        -0.0686
      6 C6          4.3830   -9.9050   11.8760 C.ar      1 CXA        -0.0602
      7 C12         5.8360  -10.1860   13.9590 C.3       1 CXA         0.0125
      8 C13         5.3710   -9.3430   15.2250 C.3       1 CXA         0.1004
      9 C14         3.8240   -9.1650   15.2020 C.2       1 CXA         0.0584
     10 O15         3.4260   -7.9600   14.7460 O.co2     1 CXA        -0.5669
     11 O16         3.0340   -9.9880   15.5480 O.co2     1 CXA        -0.5669
     12 N17         5.6840   -9.9530   16.5590 N.am      1 CXA        -0.2176
     13 S18         5.5240   -9.0860   18.0720 S.o2      1 CXA         0.1152
     14 N19         6.5090   -7.7220   18.3080 N.am      1 CXA        -0.2488
     15 O20         5.9080   -9.9330   19.1610 O.2       1 CXA        -0.1356
     16 O21         4.2640   -8.4050   18.0460 O.2       1 CXA        -0.1356
     17 H1          7.3844   -8.3848   12.4997 H         1 CXA         0.0557
     18 H2          6.8836   -7.3898   10.2617 H         1 CXA         0.0599
     19 H3          4.7772   -7.9991    9.0568 H         1 CXA         0.0559
     20 H4          3.1827   -9.6126   10.0951 H         1 CXA         0.0599
     21 H5          3.6821  -10.6074   12.3125 H         1 CXA         0.0557
     22 H6          6.9214  -10.3427   14.0440 H         1 CXA         0.0463
     23 H7          5.3210  -11.1572   13.9985 H         1 CXA         0.0463
     24 H8          5.8583   -8.3585   15.1682 H         1 CXA         0.0703
     25 H9          5.9996  -10.9015   16.5857 H         1 CXA         0.1712
     26 H10         6.4461   -7.2011   19.1593 H         1 CXA         0.1648
     27 H11         7.1516   -7.4400   17.5956 H         1 CXA         0.1648
@<TRIPOS>BOND
     1    1    2 ar 
     2    1    6 ar 
     3    1    7 1  
     4    2    3 ar 
     5    3    4 ar 
     6    4    5 ar 
     7    5    6 ar 
     8    7    8 1  
     9    8    9 1  
    10    8   12 1  
    11    9   10 ar 
    12    9   11 ar 
    13   12   13 am 
    14   13   14 am 
    15   13   15 2  
    16   13   16 2  
    17    2   17 1  
    18    3   18 1  
    19    4   19 1  
    20    5   20 1  
    21    6   21 1  
    22    7   22 1  
    23    7   23 1  
    24    8   24 1  
    25   12   25 1  
    26   14   26 1  
    27   14   27 1  
@<TRIPOS>SUBSTRUCTURE
     1 CXA         1

