### 
### Created by X-TOOL on Mon Sep 10 21:12:49 2018
### 

@<TRIPOS>MOLECULE
1iyl_ligand
   55    58     1     0     0
SMALL
GAST_HUCK


@<TRIPOS>ATOM
      1 O1         11.9680   49.1550   -4.2410 O.3       1 R64        -0.2598
      2 C2         11.9360   49.3810   -2.8880 C.2       1 R64         0.1691
      3 C3         13.1030   48.9670   -2.3160 C.2       1 R64        -0.0086
      4 C4         13.9030   48.4310   -3.3340 C.ar      1 R64         0.0404
      5 C5         15.1690   47.7800   -3.3100 C.ar      1 R64         0.0925
      6 C6         15.7330   47.4580   -4.5190 C.ar      1 R64        -0.0444
      7 C7         15.0450   47.7350   -5.7300 C.ar      1 R64        -0.0809
      8 C8         13.8020   48.3290   -5.7300 C.ar      1 R64        -0.0409
      9 C9         13.2180   48.6330   -4.5000 C.ar      1 R64         0.1170
     10 C10        10.7570   49.9550   -2.3000 C.2       1 R64         0.2206
     11 O30        10.7820   50.5510   -1.2290 O.2       1 R64        -0.3724
     12 C31         9.5260   49.7970   -2.9980 C.2       1 R64         0.1935
     13 N32         8.4180   50.5750   -2.6990 N.pl3     1 R64        -0.2417
     14 C30         8.2650   51.6990   -1.7450 C.3       1 R64         0.0486
     15 C33         7.4150   50.1000   -3.5310 C.2       1 R64         0.0438
     16 C34         7.9600   49.0950   -4.2670 C.2       1 R64        -0.0125
     17 N35         9.2410   48.9210   -3.9370 N.2       1 R64        -0.3098
     18 C11        13.5570   48.9990   -0.8870 C.3       1 R64        -0.0373
     19 O12        15.8050   47.4870   -2.1090 O.3       1 R64        -0.3175
     20 C13        16.9160   46.5880   -2.0200 C.3       1 R64         0.0762
     21 C14        17.3790   46.4990   -0.5920 C.3       1 R64         0.0155
     22 C15        16.2830   45.8600    0.1620 C.3       1 R64        -0.0297
     23 N16        16.4880   45.8840    1.6280 N.4       1 R64         0.2402
     24 C17        15.3370   45.1580    2.1910 C.3       1 R64         0.0063
     25 C18        15.5510   44.9730    3.6040 C.ar      1 R64         0.0293
     26 C19        15.8740   43.7550    4.1340 C.ar      1 R64        -0.0354
     27 C20        16.0650   43.6680    5.5000 C.ar      1 R64        -0.0403
     28 C21        15.9170   44.8100    6.2750 C.ar      1 R64         0.0042
     29 N22        15.6040   45.9740    5.7320 N.ar      1 R64        -0.3042
     30 C23        15.4220   46.0570    4.4150 C.ar      1 R64         0.0176
     31 H1         16.7099   46.9892   -4.5497 H         1 R64         0.0439
     32 H2         15.5078   47.4734   -6.6747 H         1 R64         0.0541
     33 H3         13.2920   48.5539   -6.6597 H         1 R64         0.0460
     34 H4          7.2312   52.0731   -1.7819 H         1 R64         0.0589
     35 H5          8.9578   52.5086   -2.0180 H         1 R64         0.0589
     36 H6          8.4923   51.3495   -0.7271 H         1 R64         0.0589
     37 H7          6.3893   50.4620   -3.5844 H         1 R64         0.0922
     38 H8          7.4269   48.5148   -5.0187 H         1 R64         0.0484
     39 H9         12.7761   49.4600   -0.2644 H         1 R64         0.0361
     40 H10        14.4829   49.5879   -0.8095 H         1 R64         0.0361
     41 H11        13.7450   47.9726   -0.5389 H         1 R64         0.0361
     42 H12        17.7385   46.9589   -2.6492 H         1 R64         0.0619
     43 H13        16.6090   45.5908   -2.3682 H         1 R64         0.0619
     44 H14        17.5792   47.5045   -0.1935 H         1 R64         0.0343
     45 H15        18.2924   45.8897   -0.5254 H         1 R64         0.0343
     46 H16        16.2013   44.8119   -0.1618 H         1 R64         0.0815
     47 H17        15.3464   46.3889   -0.0681 H         1 R64         0.0815
     48 H18        16.5071   46.8332    1.9667 H         1 R64         0.2029
     49 H19        17.3504   45.4227    1.8719 H         1 R64         0.2029
     50 H20        15.2418   44.1782    1.7001 H         1 R64         0.0996
     51 H21        14.4177   45.7400    2.0294 H         1 R64         0.0996
     52 H22        15.9775   42.8816    3.5004 H         1 R64         0.0680
     53 H23        16.3266   42.7217    5.9595 H         1 R64         0.0693
     54 H24        16.0610   44.7461    7.3475 H         1 R64         0.0767
     55 H25        15.1640   47.0148    3.9778 H         1 R64         0.0767
@<TRIPOS>BOND
     1    1    2 1  
     2    1    9 1  
     3    2    3 2  
     4    2   10 1  
     5    3    4 1  
     6    3   18 1  
     7    4    5 ar 
     8    4    9 ar 
     9    5    6 ar 
    10    5   19 1  
    11    6    7 ar 
    12    7    8 ar 
    13    8    9 ar 
    14   10   11 2  
    15   10   12 1  
    16   12   13 1  
    17   12   17 2  
    18   13   14 1  
    19   13   15 1  
    20   15   16 2  
    21   16   17 1  
    22   19   20 1  
    23   20   21 1  
    24   21   22 1  
    25   22   23 1  
    26   23   24 1  
    27   24   25 1  
    28   25   26 ar 
    29   25   30 ar 
    30   26   27 ar 
    31   27   28 ar 
    32   28   29 ar 
    33   29   30 ar 
    34    6   31 1  
    35    7   32 1  
    36    8   33 1  
    37   14   34 1  
    38   14   35 1  
    39   14   36 1  
    40   15   37 1  
    41   16   38 1  
    42   18   39 1  
    43   18   40 1  
    44   18   41 1  
    45   20   42 1  
    46   20   43 1  
    47   21   44 1  
    48   21   45 1  
    49   22   46 1  
    50   22   47 1  
    51   23   48 1  
    52   23   49 1  
    53   24   50 1  
    54   24   51 1  
    55   26   52 1  
    56   27   53 1  
    57   28   54 1  
    58   30   55 1  
@<TRIPOS>SUBSTRUCTURE
     1 R64         1

