### 
### Created by X-TOOL on Mon Sep 10 21:12:49 2018
### 

@<TRIPOS>MOLECULE
1izi_ligand
   99   101     1     0     0
SMALL
GAST_HUCK


@<TRIPOS>ATOM
      1 O49        -3.9530   14.6600   -7.6440 O.2       1 Q50        -0.3946
      2 C48        -4.2930   15.8400   -7.7910 C.2       1 Q50         0.2012
      3 N50        -4.5600   16.3310   -9.0110 N.am      1 Q50        -0.2988
      4 C40        -4.4850   16.8570   -6.6450 C.3       1 Q50         0.1401
      5 C41        -3.1780   17.3160   -5.9450 C.3       1 Q50         0.0214
      6 C42        -2.2930   16.2270   -5.3300 C.ar      1 Q50        -0.0386
      7 C43        -2.6210   15.5970   -4.1330 C.ar      1 Q50        -0.0601
      8 C44        -1.7590   14.6470   -3.5640 C.ar      1 Q50        -0.0686
      9 C45        -0.5510   14.3010   -4.1450 C.ar      1 Q50        -0.0687
     10 C46        -0.2120   14.9300   -5.3270 C.ar      1 Q50        -0.0686
     11 C47        -1.0550   15.8850   -5.9040 C.ar      1 Q50        -0.0601
     12 N39        -5.4320   16.3400   -5.6420 N.am      1 Q50        -0.2619
     13 C37        -6.4340   17.0550   -5.0880 C.2       1 Q50         0.2042
     14 O38        -6.5610   18.2700   -5.3930 O.2       1 Q50        -0.3944
     15 C31        -7.3090   16.1970   -4.0950 C.3       1 Q50         0.1330
     16 C32        -8.6100   15.6400   -4.6070 C.3       1 Q50         0.0045
     17 C33        -8.3160   14.7610   -5.7950 C.3       1 Q50         0.0412
     18 C34        -8.3420   15.6690   -6.9720 C.2       1 Q50         0.1737
     19 O35        -9.0380   16.6530   -6.9410 O.2       1 Q50        -0.3973
     20 N36        -7.5680   15.3710   -8.0180 N.am      1 Q50        -0.3009
     21 N30        -7.6550   16.9040   -2.8890 N.am      1 Q50        -0.2651
     22 C28        -7.5570   16.3320   -1.7260 C.2       1 Q50         0.1834
     23 O29        -7.2820   15.1350   -1.6000 O.2       1 Q50        -0.3965
     24 C20        -7.8610   17.2930   -0.6240 C.3       1 Q50         0.0607
     25 C21        -6.6180   17.7820    0.1270 C.3       1 Q50         0.0007
     26 C22        -5.3110   17.8050   -0.6420 C.ar      1 Q50        -0.0405
     27 C23        -4.3130   16.8700   -0.3330 C.ar      1 Q50        -0.0602
     28 C24        -3.1010   16.9150   -1.0320 C.ar      1 Q50        -0.0686
     29 C25        -2.8240   17.8960   -2.0090 C.ar      1 Q50        -0.0687
     30 C26        -3.8050   18.8320   -2.3110 C.ar      1 Q50        -0.0686
     31 C27        -5.0340   18.7910   -1.6150 C.ar      1 Q50        -0.0602
     32 C19        -8.7030   16.5880    0.3920 C.3       1 Q50        -0.0029
     33 C17       -10.1200   16.5030   -0.0710 C.3       1 Q50         0.0823
     34 O18       -10.5440   17.8640    0.2220 O.3       1 Q50        -0.3892
     35 C9        -10.7220   15.2360    0.5860 C.3       1 Q50         0.0794
     36 N8        -10.7880   15.4390    2.0550 N.am      1 Q50        -0.2550
     37 C6         -9.9930   14.7200    2.8970 C.2       1 Q50         0.3204
     38 O7         -9.2790   13.8920    2.3210 O.2       1 Q50        -0.3775
     39 O5        -10.0040   14.8980    4.3980 O.3       1 Q50        -0.2581
     40 C1         -9.0380   14.9940    5.5250 C.3       1 Q50         0.0905
     41 C4         -7.8290   15.8470    5.2340 C.3       1 Q50        -0.0320
     42 C3         -8.5770   13.6610    6.0520 C.3       1 Q50        -0.0320
     43 C2         -9.6780   15.5550    6.7800 C.3       1 Q50        -0.0320
     44 C10       -12.0860   14.7920    0.0020 C.3       1 Q50         0.0064
     45 C11       -12.6780   13.5780    0.7010 C.ar      1 Q50        -0.0408
     46 C12       -13.7160   13.7350    1.6590 C.ar      1 Q50        -0.0603
     47 C13       -14.2830   12.6480    2.3460 C.ar      1 Q50        -0.0686
     48 C14       -13.8400   11.3510    2.0920 C.ar      1 Q50        -0.0687
     49 C15       -12.8230   11.1770    1.1240 C.ar      1 Q50        -0.0686
     50 C16       -12.2460   12.2630    0.4180 C.ar      1 Q50        -0.0603
     51 H1         -4.8340   17.2870   -9.1163 H         1 Q50         0.1815
     52 H2         -4.4850   15.7409   -9.8149 H         1 Q50         0.1815
     53 H3         -4.9346   17.7544   -7.0951 H         1 Q50         0.0823
     54 H4         -3.4604   18.0078   -5.1377 H         1 Q50         0.0474
     55 H5         -2.5731   17.8512   -6.6917 H         1 Q50         0.0474
     56 H6         -3.5520   15.8427   -3.6351 H         1 Q50         0.0557
     57 H7         -2.0494   14.1670   -2.6365 H         1 Q50         0.0599
     58 H8          0.1029   13.5656   -3.6903 H         1 Q50         0.0559
     59 H9          0.7227   14.6793   -5.8154 H         1 Q50         0.0599
     60 H10        -0.7457   16.3758   -6.8197 H         1 Q50         0.0557
     61 H11        -5.3247   15.3896   -5.3501 H         1 Q50         0.1885
     62 H12        -6.6796   15.3390   -3.8162 H         1 Q50         0.0801
     63 H13        -9.2734   16.4636   -4.9094 H         1 Q50         0.0337
     64 H14        -9.0968   15.0478   -3.8181 H         1 Q50         0.0337
     65 H15        -9.0832   13.9791   -5.8948 H         1 Q50         0.0504
     66 H16        -7.3261   14.2925   -5.6919 H         1 Q50         0.0504
     67 H17        -7.5655   15.9640   -8.8232 H         1 Q50         0.1814
     68 H18        -6.9907   14.5547   -7.9964 H         1 Q50         0.1814
     69 H19        -7.9755   17.8494   -2.9473 H         1 Q50         0.1883
     70 H20        -8.4002   18.1565   -1.0406 H         1 Q50         0.0561
     71 H21        -6.4780   17.1260    0.9988 H         1 Q50         0.0453
     72 H22        -6.8195   18.8080    0.4687 H         1 Q50         0.0453
     73 H23        -4.4774   16.1235    0.4356 H         1 Q50         0.0557
     74 H24        -2.3461   16.1680   -0.8149 H         1 Q50         0.0599
     75 H25        -1.8648   17.9183   -2.5134 H         1 Q50         0.0559
     76 H26        -3.6298   19.5846   -3.0713 H         1 Q50         0.0599
     77 H27        -5.7873   19.5390   -1.8344 H         1 Q50         0.0557
     78 H28        -8.6651   17.1425    1.3412 H         1 Q50         0.0320
     79 H29        -8.3107   15.5718    0.5450 H         1 Q50         0.0320
     80 H30       -10.1859   16.3549   -1.1590 H         1 Q50         0.0619
     81 H31       -11.4654   17.9597    0.0115 H         1 Q50         0.2099
     82 H32       -10.0194   14.4111    0.3968 H         1 Q50         0.0604
     83 H33       -11.4242   16.1122    2.4319 H         1 Q50         0.1873
     84 H34        -7.1711   15.8633    6.1154 H         1 Q50         0.0260
     85 H35        -8.1515   16.8719    4.9982 H         1 Q50         0.0260
     86 H36        -7.2825   15.4280    4.3763 H         1 Q50         0.0260
     87 H37        -7.8689   13.8187    6.8788 H         1 Q50         0.0260
     88 H38        -8.0809   13.0999    5.2464 H         1 Q50         0.0260
     89 H39        -9.4444   13.0907    6.4158 H         1 Q50         0.0260
     90 H40        -8.9275   15.6068    7.5826 H         1 Q50         0.0260
     91 H41       -10.5053   14.9013    7.0934 H         1 Q50         0.0260
     92 H42       -10.0653   16.5638    6.5746 H         1 Q50         0.0260
     93 H43       -11.9468   14.5480   -1.0615 H         1 Q50         0.0449
     94 H44       -12.7943   15.6282    0.0967 H         1 Q50         0.0449
     95 H45       -14.0849   14.7326    1.8680 H         1 Q50         0.0557
     96 H46       -15.0667   12.8186    3.0752 H         1 Q50         0.0599
     97 H47       -14.2613   10.5028    2.6193 H         1 Q50         0.0559
     98 H48       -12.4709   10.1736    0.9137 H         1 Q50         0.0599
     99 H49       -11.4820   12.0862   -0.3304 H         1 Q50         0.0557
@<TRIPOS>BOND
     1    1    2 2  
     2    2    4 1  
     3    2    3 am 
     4    4   12 1  
     5    4    5 1  
     6    5    6 1  
     7    6   11 ar 
     8    6    7 ar 
     9    7    8 ar 
    10    8    9 ar 
    11    9   10 ar 
    12   10   11 ar 
    13   12   13 am 
    14   13   15 1  
    15   13   14 2  
    16   15   21 1  
    17   15   16 1  
    18   16   17 1  
    19   17   18 1  
    20   18   20 am 
    21   18   19 2  
    22   21   22 am 
    23   22   24 1  
    24   22   23 2  
    25   24   32 1  
    26   24   25 1  
    27   25   26 1  
    28   26   31 ar 
    29   26   27 ar 
    30   27   28 ar 
    31   28   29 ar 
    32   29   30 ar 
    33   30   31 ar 
    34   32   33 1  
    35   33   35 1  
    36   33   34 1  
    37   35   44 1  
    38   35   36 1  
    39   36   37 am 
    40   37   39 1  
    41   37   38 2  
    42   39   40 1  
    43   40   43 1  
    44   40   42 1  
    45   40   41 1  
    46   44   45 1  
    47   45   50 ar 
    48   45   46 ar 
    49   46   47 ar 
    50   47   48 ar 
    51   48   49 ar 
    52   49   50 ar 
    53    3   51 1  
    54    3   52 1  
    55    4   53 1  
    56    5   54 1  
    57    5   55 1  
    58    7   56 1  
    59    8   57 1  
    60    9   58 1  
    61   10   59 1  
    62   11   60 1  
    63   12   61 1  
    64   15   62 1  
    65   16   63 1  
    66   16   64 1  
    67   17   65 1  
    68   17   66 1  
    69   20   67 1  
    70   20   68 1  
    71   21   69 1  
    72   24   70 1  
    73   25   71 1  
    74   25   72 1  
    75   27   73 1  
    76   28   74 1  
    77   29   75 1  
    78   30   76 1  
    79   31   77 1  
    80   32   78 1  
    81   32   79 1  
    82   33   80 1  
    83   34   81 1  
    84   35   82 1  
    85   36   83 1  
    86   41   84 1  
    87   41   85 1  
    88   41   86 1  
    89   42   87 1  
    90   42   88 1  
    91   42   89 1  
    92   43   90 1  
    93   43   91 1  
    94   43   92 1  
    95   44   93 1  
    96   44   94 1  
    97   46   95 1  
    98   47   96 1  
    99   48   97 1  
   100   49   98 1  
   101   50   99 1  
@<TRIPOS>SUBSTRUCTURE
     1 Q50         1

