### 
### Created by X-TOOL on Mon Sep 10 21:12:49 2018
### 

@<TRIPOS>MOLECULE
1j01_ligand
   35    36     1     0     0
SMALL
GAST_HUCK


@<TRIPOS>ATOM
      1 C1         16.9390   65.2780   38.6890 C.3       1 XIL         0.1881
      2 C2         16.7360   64.2640   39.8230 C.3       1 XIL         0.1341
      3 O2         17.6110   63.1630   39.6270 O.3       1 XIL        -0.3841
      4 C3         15.2860   63.7640   39.8530 C.3       1 XIL         0.1137
      5 O3         15.0750   62.9680   41.0130 O.3       1 XIL        -0.3864
      6 C4         14.3070   64.9340   39.8570 C.3       1 XIL         0.1069
      7 O4         12.9860   64.4390   39.7100 O.3       1 XIL        -0.3869
      8 C5         14.6260   65.9000   38.7090 C.3       1 XIL         0.0792
      9 O5         15.9950   66.3540   38.8070 O.3       1 XIL        -0.3461
     10 N1'        20.3010   67.7760   35.6970 N.am      1 XIL        -0.2847
     11 C2'        20.3400   68.3380   37.0000 C.2       1 XIL         0.2075
     12 C3'        19.6480   67.6930   38.0530 C.3       1 XIL         0.1696
     13 O2'        21.1920   69.1770   37.2630 O.2       1 XIL        -0.3941
     14 O3'        19.2260   68.4610   39.1620 O.3       1 XIL        -0.3688
     15 C4'        18.5500   66.6550   37.6440 C.3       1 XIL         0.1065
     16 O4'        18.2770   65.8240   38.7680 O.3       1 XIL        -0.3404
     17 C5'        19.0280   65.8500   36.4310 C.3       1 XIL        -0.0016
     18 C6'        19.2710   66.8340   35.3220 C.3       1 XIL         0.0335
     19 H1         16.8014   64.7741   37.7209 H         1 XIL         0.0937
     20 H2         16.9685   64.7475   40.7833 H         1 XIL         0.0671
     21 H3         17.5033   62.5436   40.3392 H         1 XIL         0.2101
     22 H4         15.1040   63.1509   38.9580 H         1 XIL         0.0647
     23 H5         14.1844   62.6374   41.0111 H         1 XIL         0.2100
     24 H6         14.3899   65.4713   40.8132 H         1 XIL         0.0643
     25 H7         12.9112   63.9806   38.8813 H         1 XIL         0.2100
     26 H8         13.9506   66.7665   38.7644 H         1 XIL         0.0587
     27 H9         14.4820   65.3837   37.7485 H         1 XIL         0.0587
     28 H10        20.9973   68.0360   35.0279 H         1 XIL         0.1851
     29 H11        20.4397   67.0620   38.4832 H         1 XIL         0.0864
     30 H12        19.9062   69.0829   39.3924 H         1 XIL         0.2134
     31 H13        17.6295   67.1900   37.3675 H         1 XIL         0.0649
     32 H14        18.2574   65.1247   36.1309 H         1 XIL         0.0312
     33 H15        19.9588   65.3166   36.6740 H         1 XIL         0.0312
     34 H16        19.5883   66.2910   34.4196 H         1 XIL         0.0521
     35 H17        18.3396   67.3805   35.1126 H         1 XIL         0.0521
@<TRIPOS>BOND
     1    1   16 1  
     2    1    9 1  
     3    1    2 1  
     4    2    4 1  
     5    2    3 1  
     6    4    6 1  
     7    4    5 1  
     8    6    8 1  
     9    6    7 1  
    10    8    9 1  
    11   16   15 1  
    12   15   17 1  
    13   15   12 1  
    14   12   14 1  
    15   12   11 1  
    16   11   13 2  
    17   11   10 am 
    18   10   18 1  
    19   18   17 1  
    20    1   19 1  
    21    2   20 1  
    22    3   21 1  
    23    4   22 1  
    24    5   23 1  
    25    6   24 1  
    26    7   25 1  
    27    8   26 1  
    28    8   27 1  
    29   10   28 1  
    30   12   29 1  
    31   14   30 1  
    32   15   31 1  
    33   17   32 1  
    34   17   33 1  
    35   18   34 1  
    36   18   35 1  
@<TRIPOS>SUBSTRUCTURE
     1 XIL         1

