### 
### Created by X-TOOL on Mon Sep 10 21:12:50 2018
### 

@<TRIPOS>MOLECULE
1j07_ligand
   80    83     1     0     0
SMALL
GAST_HUCK


@<TRIPOS>ATOM
      1 C2         39.1110   24.0780    4.9510 C.3       1 DCU         0.0073
      2 C3         38.8710   24.0030    3.4080 C.3       1 DCU        -0.0407
      3 C4         39.0990   22.6660    2.6670 C.3       1 DCU        -0.0520
      4 C5         40.5850   22.2530    2.7240 C.3       1 DCU        -0.0530
      5 C6         41.3310   22.5260    1.4350 C.3       1 DCU        -0.0531
      6 C7         42.6340   21.9620    1.3120 C.3       1 DCU        -0.0531
      7 C8         43.3210   22.1700   -0.0310 C.3       1 DCU        -0.0529
      8 C9         44.8520   22.3810    0.0780 C.3       1 DCU        -0.0483
      9 C10        45.5940   21.6890   -1.0650 C.3       1 DCU        -0.0125
     10 C11        46.8360   22.4100   -1.6650 C.3       1 DCU        -0.0309
     11 N12        48.1670   21.7190   -1.4410 N.4       1 DCU         0.2369
     12 C13        49.2410   22.5990   -1.9150 C.3       1 DCU        -0.0418
     13 C14        48.2580   20.4360   -2.1980 C.3       1 DCU        -0.0418
     14 C15        48.4280   21.4380   -0.0070 C.3       1 DCU        -0.0418
     15 C16        41.1840   27.2100    9.4870 C.ar      1 DCU        -0.0155
     16 C17        40.5310   26.6970    8.3210 C.ar      1 DCU         0.0430
     17 C18        41.3240   26.6900    7.0560 C.ar      1 DCU         0.0550
     18 C19        42.6540   27.2670    7.1170 C.ar      1 DCU         0.0294
     19 C20        43.2470   27.7800    8.3040 C.ar      1 DCU         0.1071
     20 C21        42.5070   27.7480    9.5050 C.ar      1 DCU         0.0089
     21 C22        40.8850   25.8360    5.9780 C.ar      1 DCU         0.0662
     22 N23        39.6310   25.1270    6.0400 N.ar      1 DCU        -0.3457
     23 C24        38.7860   25.3030    7.1850 C.ar      1 DCU         0.0525
     24 C25        39.2080   26.1640    8.3120 C.ar      1 DCU         0.0421
     25 C26        37.5680   24.5520    7.4130 C.ar      1 DCU         0.0074
     26 C27        36.7870   24.5880    8.5990 C.ar      1 DCU         0.0861
     27 C28        37.2100   25.4110    9.6390 C.ar      1 DCU         0.0015
     28 C29        38.3960   26.1710    9.4660 C.ar      1 DCU        -0.0178
     29 C30        41.7560   25.7440    4.7550 C.ar      1 DCU         0.0197
     30 C31        42.7740   24.7330    4.6830 C.ar      1 DCU        -0.0393
     31 C32        43.6430   24.6720    3.5560 C.ar      1 DCU        -0.0505
     32 C33        43.5050   25.6050    2.5000 C.ar      1 DCU        -0.0518
     33 C34        42.4920   26.6070    2.5640 C.ar      1 DCU        -0.0505
     34 C35        41.6180   26.6730    3.6940 C.ar      1 DCU        -0.0393
     35 N36        44.5400   28.3370    8.3040 N.pl3     1 DCU        -0.3022
     36 N37        35.6220   23.8150    8.7690 N.pl3     1 DCU        -0.3098
     37 H1         39.7958   23.2322    5.1115 H         1 DCU         0.0418
     38 H2         38.1156   23.8236    5.3441 H         1 DCU         0.0418
     39 H3         39.5385   24.7440    2.9439 H         1 DCU         0.0276
     40 H4         37.8242   24.2917    3.2325 H         1 DCU         0.0276
     41 H5         38.7969   22.7806    1.6155 H         1 DCU         0.0266
     42 H6         38.4889   21.8828    3.1406 H         1 DCU         0.0266
     43 H7         40.6402   21.1755    2.9381 H         1 DCU         0.0265
     44 H8         41.0726   22.8135    3.5352 H         1 DCU         0.0265
     45 H9         41.4302   23.6168    1.3331 H         1 DCU         0.0265
     46 H10        40.7201   22.1345    0.6082 H         1 DCU         0.0265
     47 H11        42.5508   20.8788    1.4845 H         1 DCU         0.0265
     48 H12        43.2704   22.4094    2.0897 H         1 DCU         0.0265
     49 H13        42.8818   23.0564   -0.5120 H         1 DCU         0.0265
     50 H14        43.1364   21.2841   -0.6563 H         1 DCU         0.0265
     51 H15        45.2030   21.9670    1.0348 H         1 DCU         0.0267
     52 H16        45.0679   23.4591    0.0437 H         1 DCU         0.0267
     53 H17        44.8731   21.5419   -1.8828 H         1 DCU         0.0317
     54 H18        45.9309   20.7103   -0.6926 H         1 DCU         0.0317
     55 H19        46.8953   23.4122   -1.2156 H         1 DCU         0.0815
     56 H20        46.6817   22.5033   -2.7501 H         1 DCU         0.0815
     57 H21        50.2130   22.1086   -1.7579 H         1 DCU         0.0778
     58 H22        49.2133   23.5456   -1.3554 H         1 DCU         0.0778
     59 H23        49.1021   22.8025   -2.9870 H         1 DCU         0.0778
     60 H24        47.4622   19.7549   -1.8621 H         1 DCU         0.0778
     61 H25        49.2386   19.9719   -2.0165 H         1 DCU         0.0778
     62 H26        48.1402   20.6355   -3.2733 H         1 DCU         0.0778
     63 H27        48.3650   22.3740    0.5674 H         1 DCU         0.0778
     64 H28        49.4335   21.0062    0.1050 H         1 DCU         0.0778
     65 H29        47.6790   20.7257    0.3693 H         1 DCU         0.0778
     66 H30        40.6359   27.1887   10.4220 H         1 DCU         0.0871
     67 H31        43.2318   27.3098    6.2008 H         1 DCU         0.0930
     68 H32        42.9356   28.1256   10.4263 H         1 DCU         0.0703
     69 H33        37.2239   23.9087    6.6112 H         1 DCU         0.0635
     70 H34        36.6450   25.4702   10.5622 H         1 DCU         0.0753
     71 H35        38.7030   26.8087   10.2871 H         1 DCU         0.0767
     72 H36        42.8811   24.0150    5.4880 H         1 DCU         0.0702
     73 H37        44.4118   23.9094    3.5067 H         1 DCU         0.0647
     74 H38        44.1684   25.5578    1.6440 H         1 DCU         0.0701
     75 H39        42.3844   27.3199    1.7545 H         1 DCU         0.0647
     76 H40        40.8485   27.4352    3.7389 H         1 DCU         0.0702
     77 H41        45.0886   28.3653    7.4327 H         1 DCU         0.2004
     78 H42        44.9374   28.7162    9.1753 H         1 DCU         0.2004
     79 H43        35.2959   23.2011    8.0090 H         1 DCU         0.1952
     80 H44        35.0962   23.8636    9.6533 H         1 DCU         0.1952
@<TRIPOS>BOND
     1    1    2 1  
     2   22    1 1  
     3    2    3 1  
     4    3    4 1  
     5    4    5 1  
     6    5    6 1  
     7    6    7 1  
     8    7    8 1  
     9    8    9 1  
    10    9   10 1  
    11   10   11 1  
    12   11   12 1  
    13   11   13 1  
    14   11   14 1  
    15   16   15 ar 
    16   15   20 ar 
    17   17   16 ar 
    18   16   24 ar 
    19   17   18 ar 
    20   21   17 ar 
    21   18   19 ar 
    22   19   20 ar 
    23   19   35 1  
    24   22   21 ar 
    25   21   29 1  
    26   22   23 ar 
    27   23   24 ar 
    28   23   25 ar 
    29   24   28 ar 
    30   25   26 ar 
    31   26   27 ar 
    32   26   36 1  
    33   27   28 ar 
    34   29   30 ar 
    35   29   34 ar 
    36   30   31 ar 
    37   31   32 ar 
    38   32   33 ar 
    39   33   34 ar 
    40    1   37 1  
    41    1   38 1  
    42    2   39 1  
    43    2   40 1  
    44    3   41 1  
    45    3   42 1  
    46    4   43 1  
    47    4   44 1  
    48    5   45 1  
    49    5   46 1  
    50    6   47 1  
    51    6   48 1  
    52    7   49 1  
    53    7   50 1  
    54    8   51 1  
    55    8   52 1  
    56    9   53 1  
    57    9   54 1  
    58   10   55 1  
    59   10   56 1  
    60   12   57 1  
    61   12   58 1  
    62   12   59 1  
    63   13   60 1  
    64   13   61 1  
    65   13   62 1  
    66   14   63 1  
    67   14   64 1  
    68   14   65 1  
    69   15   66 1  
    70   18   67 1  
    71   20   68 1  
    72   25   69 1  
    73   27   70 1  
    74   28   71 1  
    75   30   72 1  
    76   31   73 1  
    77   32   74 1  
    78   33   75 1  
    79   34   76 1  
    80   35   77 1  
    81   35   78 1  
    82   36   79 1  
    83   36   80 1  
@<TRIPOS>SUBSTRUCTURE
     1 DCU         1

