### 
### Created by X-TOOL on Mon Sep 10 21:12:49 2018
### 

@<TRIPOS>MOLECULE
1j14_ligand
   18    18     1     0     0
SMALL
GAST_HUCK


@<TRIPOS>ATOM
      1 C1          7.7230   50.4040   55.5330 C.ar      1 BEN         0.0260
      2 C2          7.7130   49.2610   54.7110 C.ar      1 BEN        -0.0565
      3 C3          7.8590   47.9780   55.2700 C.ar      1 BEN        -0.0618
      4 C4          8.0070   47.8330   56.6610 C.ar      1 BEN        -0.0618
      5 C5          8.0120   48.9710   57.4870 C.ar      1 BEN        -0.0618
      6 C6          7.8750   50.2500   56.9220 C.ar      1 BEN        -0.0565
      7 C           7.5690   51.7870   54.9280 C.cat     1 BEN         0.2356
      8 N1          7.2160   52.7920   55.6900 N.pl3     1 BEN        -0.2721
      9 N2          7.8020   51.9530   53.6580 N.pl3     1 BEN        -0.2721
     10 H1          7.5919   49.3702   53.6393 H         1 BEN         0.0617
     11 H2          7.8574   47.1032   54.6298 H         1 BEN         0.0618
     12 H3          8.1170   46.8460   57.0955 H         1 BEN         0.0618
     13 H4          8.1216   48.8614   58.5599 H         1 BEN         0.0618
     14 H5          7.8866   51.1248   57.5621 H         1 BEN         0.0617
     15 H6          7.1099   53.7330   55.2849 H         1 BEN         0.3181
     16 H7          7.0445   52.6414   56.6944 H         1 BEN         0.3181
     17 H8          8.0786   51.1496   53.0758 H         1 BEN         0.3181
     18 H9          7.7098   52.8878   53.2354 H         1 BEN         0.3181
@<TRIPOS>BOND
     1    1    7 1  
     2    1    6 ar 
     3    1    2 ar 
     4    2    3 ar 
     5    3    4 ar 
     6    4    5 ar 
     7    5    6 ar 
     8    7    9 ar 
     9    7    8 ar 
    10    2   10 1  
    11    3   11 1  
    12    4   12 1  
    13    5   13 1  
    14    6   14 1  
    15    8   15 1  
    16    8   16 1  
    17    9   17 1  
    18    9   18 1  
@<TRIPOS>SUBSTRUCTURE
     1 BEN         1

