### 
### Created by X-TOOL on Mon Sep 10 21:12:48 2018
### 

@<TRIPOS>MOLECULE
1j15_ligand
   18    18     1     0     0
SMALL
GAST_HUCK


@<TRIPOS>ATOM
      1 C1          7.6450   50.3300   55.6650 C.ar      1 BEN         0.0260
      2 C2          7.6790   49.1640   54.8780 C.ar      1 BEN        -0.0565
      3 C3          7.8060   47.9060   55.4790 C.ar      1 BEN        -0.0618
      4 C4          7.8130   47.8000   56.8720 C.ar      1 BEN        -0.0618
      5 C5          7.8240   48.9590   57.6580 C.ar      1 BEN        -0.0618
      6 C6          7.7940   50.2210   57.0500 C.ar      1 BEN        -0.0565
      7 C           7.4480   51.6850   55.0150 C.cat     1 BEN         0.2356
      8 N1          6.9870   52.6880   55.7340 N.pl3     1 BEN        -0.2721
      9 N2          7.7610   51.8320   53.7460 N.pl3     1 BEN        -0.2721
     10 H1          7.6064   49.2404   53.7991 H         1 BEN         0.0617
     11 H2          7.8986   47.0171   54.8655 H         1 BEN         0.0618
     12 H3          7.8099   46.8237   57.3430 H         1 BEN         0.0618
     13 H4          7.8558   48.8796   58.7386 H         1 BEN         0.0618
     14 H5          7.8866   51.1152   57.6557 H         1 BEN         0.0617
     15 H6          6.8500   53.6122   55.3005 H         1 BEN         0.3181
     16 H7          6.7635   52.5480   56.7297 H         1 BEN         0.3181
     17 H8          8.1194   51.0303   53.2078 H         1 BEN         0.3181
     18 H9          7.6477   52.7488   53.2905 H         1 BEN         0.3181
@<TRIPOS>BOND
     1    1    2 ar 
     2    1    6 ar 
     3    1    7 1  
     4    2    3 ar 
     5    3    4 ar 
     6    4    5 ar 
     7    5    6 ar 
     8    7    8 ar 
     9    7    9 ar 
    10    2   10 1  
    11    3   11 1  
    12    4   12 1  
    13    5   13 1  
    14    6   14 1  
    15    8   15 1  
    16    8   16 1  
    17    9   17 1  
    18    9   18 1  
@<TRIPOS>SUBSTRUCTURE
     1 BEN         1

