### 
### Created by X-TOOL on Mon Sep 10 21:12:49 2018
### 

@<TRIPOS>MOLECULE
1j16_ligand
   18    18     1     0     0
SMALL
GAST_HUCK


@<TRIPOS>ATOM
      1 C1          7.6690   49.7290   54.9860 C.ar      1 BEN         0.0260
      2 C2          7.6600   48.5450   54.2340 C.ar      1 BEN        -0.0565
      3 C3          7.7490   47.2910   54.8600 C.ar      1 BEN        -0.0618
      4 C4          7.7720   47.2190   56.2540 C.ar      1 BEN        -0.0618
      5 C5          7.8360   48.3980   57.0080 C.ar      1 BEN        -0.0618
      6 C6          7.7690   49.6510   56.3800 C.ar      1 BEN        -0.0565
      7 C           7.4610   51.0660   54.3070 C.cat     1 BEN         0.2356
      8 N1          7.0030   52.0820   54.9990 N.pl3     1 BEN        -0.2721
      9 N2          7.7540   51.1930   53.0390 N.pl3     1 BEN        -0.2721
     10 H1          7.5832   48.5987   53.1540 H         1 BEN         0.0617
     11 H2          7.7994   46.3860   54.2654 H         1 BEN         0.0618
     12 H3          7.7405   46.2559   56.7504 H         1 BEN         0.0618
     13 H4          7.9381   48.3418   58.0857 H         1 BEN         0.0618
     14 H5          7.7947   50.5576   56.9737 H         1 BEN         0.0617
     15 H6          6.8597   52.9938   54.5418 H         1 BEN         0.3181
     16 H7          6.7867   51.9680   55.9996 H         1 BEN         0.3181
     17 H8          8.1127   50.3853   52.5099 H         1 BEN         0.3181
     18 H9          7.6261   52.1007   52.5693 H         1 BEN         0.3181
@<TRIPOS>BOND
     1    7    1 1  
     2    1    6 ar 
     3    1    2 ar 
     4    2    3 ar 
     5    3    4 ar 
     6    4    5 ar 
     7    6    5 ar 
     8    7    9 ar 
     9    7    8 ar 
    10    2   10 1  
    11    3   11 1  
    12    4   12 1  
    13    5   13 1  
    14    6   14 1  
    15    8   15 1  
    16    8   16 1  
    17    9   17 1  
    18    9   18 1  
@<TRIPOS>SUBSTRUCTURE
     1 BEN         1

