### 
### Created by X-TOOL on Mon Sep 10 21:12:49 2018
### 

@<TRIPOS>MOLECULE
1j17_ligand
   61    65     1     0     0
SMALL
GAST_HUCK


@<TRIPOS>ATOM
      1 N1         18.5550   50.7460   60.2510 N.ar      1 ZEN        -0.3162
      2 C2         18.3350   50.7600   61.5890 C.ar      1 ZEN        -0.0037
      3 C3         17.1270   50.2600   62.1090 C.ar      1 ZEN        -0.0167
      4 C5         16.4120   49.7340   59.8510 C.ar      1 ZEN        -0.0167
      5 C6         17.6340   50.2500   59.3870 C.ar      1 ZEN        -0.0037
      6 C4         16.1530   49.7430   61.2260 C.ar      1 ZEN         0.0610
      7 N7         14.9290   49.2200   61.7440 N.pl3     1 ZEN        -0.3003
      8 C8         14.5110   49.5150   63.1380 C.3       1 ZEN         0.0317
      9 C9         13.1890   50.3120   63.1290 C.3       1 ZEN        -0.0130
     10 C11        12.5410   49.2560   60.9340 C.3       1 ZEN        -0.0130
     11 C12        13.9240   48.5390   60.8740 C.3       1 ZEN         0.0317
     12 C10        12.0790   49.4920   62.4130 C.3       1 ZEN         0.0524
     13 C13        10.7440   50.2250   62.4430 C.2       1 ZEN         0.1817
     14 O23        10.8350   51.4570   62.5380 O.2       1 ZEN        -0.3966
     15 N14         9.5510   49.6290   62.3760 N.am      1 ZEN        -0.2699
     16 C15         9.3600   48.1550   62.2660 C.3       1 ZEN         0.0510
     17 C16         8.4700   47.8600   61.0290 C.3       1 ZEN         0.0500
     18 C18         7.5060   50.1330   61.1170 C.3       1 ZEN         0.0500
     19 C19         8.3110   50.4480   62.4030 C.3       1 ZEN         0.0510
     20 N17         7.2310   48.6760   61.0880 N.am      1 ZEN        -0.2302
     21 S20         6.1600   48.2550   59.9220 S.o2      1 ZEN         0.0707
     22 O21         4.9890   49.1080   60.0410 O.2       1 ZEN        -0.1501
     23 O22         5.9200   46.8530   60.0990 O.2       1 ZEN        -0.1501
     24 C24         6.8680   48.4890   58.2970 C.ar      1 ZEN         0.1090
     25 C25         6.8400   49.7590   57.6620 C.ar      1 ZEN        -0.0273
     26 C33         7.4910   47.4070   57.6470 C.ar      1 ZEN        -0.0345
     27 C34         8.0580   47.5740   56.3770 C.ar      1 ZEN        -0.0521
     28 C26         7.4140   49.9340   56.3820 C.ar      1 ZEN        -0.0160
     29 C27         8.0160   48.8260   55.7420 C.ar      1 ZEN        -0.0173
     30 C28         8.5800   48.9810   54.4930 C.ar      1 ZEN        -0.0401
     31 C30         7.9500   51.3360   54.4560 C.ar      1 ZEN        -0.0473
     32 C31         7.3800   51.1910   55.7290 C.ar      1 ZEN        -0.0536
     33 C29         8.5570   50.2170   53.8420 C.ar      1 ZEN         0.0411
     34 CL32        9.3320   50.3470   52.2770 Cl        1 ZEN        -0.0704
     35 H1         19.0900   51.1565   62.2581 H         1 ZEN         0.0780
     36 H2         16.9453   50.2714   63.1776 H         1 ZEN         0.0610
     37 H3         15.6823   49.3357   59.1553 H         1 ZEN         0.0610
     38 H4         17.8438   50.2518   58.3235 H         1 ZEN         0.0780
     39 H5         15.2920   50.1085   63.6358 H         1 ZEN         0.0521
     40 H6         14.3646   48.5709   63.6831 H         1 ZEN         0.0521
     41 H7         13.3403   51.2627   62.5967 H         1 ZEN         0.0312
     42 H8         12.8799   50.5168   64.1646 H         1 ZEN         0.0312
     43 H9         12.6201   50.2279   60.4250 H         1 ZEN         0.0312
     44 H10        11.7932   48.6333   60.4211 H         1 ZEN         0.0312
     45 H11        13.8032   47.4995   61.2128 H         1 ZEN         0.0521
     46 H12        14.2862   48.5464   59.8354 H         1 ZEN         0.0521
     47 H13        11.9607   48.5223   62.9187 H         1 ZEN         0.0539
     48 H14         8.8685   47.7765   63.1744 H         1 ZEN         0.0538
     49 H15        10.3364   47.6631   62.1453 H         1 ZEN         0.0538
     50 H16         8.2031   46.7929   61.0185 H         1 ZEN         0.0498
     51 H17         9.0260   48.1079   60.1128 H         1 ZEN         0.0498
     52 H18         6.5580   50.6908   61.1251 H         1 ZEN         0.0498
     53 H19         8.0922   50.4191   60.2313 H         1 ZEN         0.0498
     54 H20         8.5692   51.5169   62.4301 H         1 ZEN         0.0538
     55 H21         7.7132   50.1925   63.2904 H         1 ZEN         0.0538
     56 H22         6.3750   50.6006   58.1626 H         1 ZEN         0.0643
     57 H23         7.5323   46.4385   58.1322 H         1 ZEN         0.0637
     58 H24         8.5311   46.7335   55.8823 H         1 ZEN         0.0624
     59 H25         9.0481   48.1313   54.0093 H         1 ZEN         0.0630
     60 H26         7.9254   52.2940   53.9494 H         1 ZEN         0.0623
     61 H27         6.9132   52.0409   56.2136 H         1 ZEN         0.0623
@<TRIPOS>BOND
     1    1    5 ar 
     2    1    2 ar 
     3    2    3 ar 
     4    3    6 ar 
     5    6    4 ar 
     6    6    7 1  
     7    7   11 1  
     8    7    8 1  
     9    8    9 1  
    10    9   12 1  
    11   12   10 1  
    12   12   13 1  
    13   13   15 am 
    14   13   14 2  
    15   15   19 1  
    16   15   16 1  
    17   16   17 1  
    18   17   20 1  
    19   20   18 1  
    20   20   21 am 
    21   21   24 1  
    22   21   23 2  
    23   21   22 2  
    24   24   26 ar 
    25   24   25 ar 
    26   25   28 ar 
    27   28   32 ar 
    28   28   29 ar 
    29   29   30 ar 
    30   29   27 ar 
    31   27   26 ar 
    32   30   33 ar 
    33   33   31 ar 
    34   31   32 ar 
    35   18   19 1  
    36   10   11 1  
    37    4    5 ar 
    38   33   34 1  
    39    2   35 1  
    40    3   36 1  
    41    4   37 1  
    42    5   38 1  
    43    8   39 1  
    44    8   40 1  
    45    9   41 1  
    46    9   42 1  
    47   10   43 1  
    48   10   44 1  
    49   11   45 1  
    50   11   46 1  
    51   12   47 1  
    52   16   48 1  
    53   16   49 1  
    54   17   50 1  
    55   17   51 1  
    56   18   52 1  
    57   18   53 1  
    58   19   54 1  
    59   19   55 1  
    60   25   56 1  
    61   26   57 1  
    62   27   58 1  
    63   30   59 1  
    64   31   60 1  
    65   32   61 1  
@<TRIPOS>SUBSTRUCTURE
     1 ZEN         1

