### 
### Created by X-TOOL on Mon Sep 10 21:12:50 2018
### 

@<TRIPOS>MOLECULE
1j36_ligand
   58    59     1     0     0
SMALL
GAST_HUCK


@<TRIPOS>ATOM
      1 O1         12.5770   -2.9380   16.7020 O.2       1 LPR        -0.3903
      2 O2          8.9730   -3.7270   18.9430 O.co2     1 LPR        -0.5643
      3 O3          8.4720   -5.5280   17.7990 O.co2     1 LPR        -0.5643
      4 O4         15.1350   -1.0660   18.1450 O.co2     1 LPR        -0.5644
      5 O5         15.7420   -3.1480   17.7750 O.co2     1 LPR        -0.5644
      6 N1         10.6500   -4.7360   16.0920 N.4       1 LPR         0.2599
      7 N2         13.1100   -3.9420   18.6650 N.am      1 LPR        -0.2370
      8 N3         17.3490   -6.5550   15.0770 N.4       1 LPR         0.2185
      9 C1         12.5270   -3.9660   17.4490 C.2       1 LPR         0.2319
     10 C2         11.7940   -5.2460   16.9290 C.3       1 LPR         0.0688
     11 C3          8.9600   -4.3930   17.8710 C.2       1 LPR         0.0847
     12 C4          9.6100   -3.7590   16.6350 C.3       1 LPR         0.0340
     13 C5         13.8310   -2.7070   19.1490 C.3       1 LPR         0.1158
     14 C6         14.3250   -3.1340   20.5410 C.2       1 LPR        -0.0586
     15 C7         13.9290   -4.4160   20.7920 C.2       1 LPR        -0.0722
     16 C8         13.1620   -5.0230   19.6830 C.3       1 LPR         0.0555
     17 C9         15.0370   -2.3350   18.2760 C.2       1 LPR         0.0688
     18 C10        12.7750   -6.0630   16.1370 C.3       1 LPR         0.0082
     19 C11        13.8840   -6.7200   16.8100 C.3       1 LPR        -0.0410
     20 C12        15.3550   -6.1920   16.4250 C.3       1 LPR        -0.0123
     21 C13        15.8950   -6.8730   15.2810 C.3       1 LPR        -0.0354
     22 C14         8.5840   -3.4400   15.4970 C.3       1 LPR         0.0122
     23 C15         7.4970   -2.4550   15.8930 C.3       1 LPR        -0.0125
     24 C16         6.4910   -2.1120   14.8290 C.ar      1 LPR        -0.0427
     25 C17         6.5270   -2.7720   13.5580 C.ar      1 LPR        -0.0603
     26 C18         5.5690   -2.4500   12.5540 C.ar      1 LPR        -0.0686
     27 C19         4.5700   -1.4630   12.8120 C.ar      1 LPR        -0.0687
     28 C20         4.5340   -0.8000   14.0790 C.ar      1 LPR        -0.0686
     29 C21         5.4910   -1.1270   15.0760 C.ar      1 LPR        -0.0603
     30 H1         11.0669   -4.2857   15.2923 H         1 LPR         0.2052
     31 H2         10.1386   -5.5506   15.7903 H         1 LPR         0.2052
     32 H3         17.6908   -7.0496   14.2679 H         1 LPR         0.1994
     33 H4         17.8724   -6.8390   15.8903 H         1 LPR         0.1994
     34 H5         17.4594   -5.5631   14.9358 H         1 LPR         0.1994
     35 H6         11.4095   -5.8466   17.7665 H         1 LPR         0.1099
     36 H7         10.1034   -2.8231   16.9361 H         1 LPR         0.1027
     37 H8         13.1428   -1.8509   19.2084 H         1 LPR         0.0851
     38 H9         14.9019   -2.5098   21.2218 H         1 LPR         0.0488
     39 H10        14.1559   -4.9407   21.7189 H         1 LPR         0.0478
     40 H11        12.1502   -5.3026   20.0115 H         1 LPR         0.0651
     41 H12        13.6777   -5.9107   19.2879 H         1 LPR         0.0651
     42 H13        13.2133   -5.3912   15.3843 H         1 LPR         0.0346
     43 H14        12.1974   -6.8517   15.6326 H         1 LPR         0.0346
     44 H15        13.8372   -7.7920   16.5680 H         1 LPR         0.0270
     45 H16        13.7497   -6.5823   17.8930 H         1 LPR         0.0270
     46 H17        16.0250   -6.3540   17.2823 H         1 LPR         0.0317
     47 H18        15.2980   -5.1163   16.2023 H         1 LPR         0.0317
     48 H19        15.3344   -6.5652   14.3860 H         1 LPR         0.0813
     49 H20        15.7850   -7.9576   15.4276 H         1 LPR         0.0813
     50 H21         9.1360   -3.0192   14.6436 H         1 LPR         0.0361
     51 H22         8.1022   -4.3812   15.1939 H         1 LPR         0.0361
     52 H23         7.9878   -1.5210   16.2041 H         1 LPR         0.0429
     53 H24         6.9503   -2.8837   16.7458 H         1 LPR         0.0429
     54 H25         7.2864   -3.5196   13.3594 H         1 LPR         0.0557
     55 H26         5.5984   -2.9540   11.5947 H         1 LPR         0.0599
     56 H27         3.8403   -1.2166   12.0492 H         1 LPR         0.0559
     57 H28         3.7776   -0.0494   14.2778 H         1 LPR         0.0599
     58 H29         5.4606   -0.6222   16.0348 H         1 LPR         0.0557
@<TRIPOS>BOND
     1    9    1 2  
     2    9   10 1  
     3   10   18 1  
     4   12   11 1  
     5   13   14 1  
     6   13   17 1  
     7   14   15 2  
     8   16   15 1  
     9   18   19 1  
    10   19   20 1  
    11   20   21 1  
    12   22   23 1  
    13   23   24 1  
    14   24   25 ar 
    15   24   29 ar 
    16   25   26 ar 
    17   26   27 ar 
    18   28   27 ar 
    19   29   28 ar 
    20   12   22 1  
    21   21    8 1  
    22   17    5 ar 
    23   17    4 ar 
    24    7   16 1  
    25    7   13 1  
    26    6   12 1  
    27   11    3 ar 
    28   11    2 ar 
    29   10    6 1  
    30    9    7 am 
    31    6   30 1  
    32    6   31 1  
    33    8   32 1  
    34    8   33 1  
    35    8   34 1  
    36   10   35 1  
    37   12   36 1  
    38   13   37 1  
    39   14   38 1  
    40   15   39 1  
    41   16   40 1  
    42   16   41 1  
    43   18   42 1  
    44   18   43 1  
    45   19   44 1  
    46   19   45 1  
    47   20   46 1  
    48   20   47 1  
    49   21   48 1  
    50   21   49 1  
    51   22   50 1  
    52   22   51 1  
    53   23   52 1  
    54   23   53 1  
    55   25   54 1  
    56   26   55 1  
    57   27   56 1  
    58   28   57 1  
    59   29   58 1  
@<TRIPOS>SUBSTRUCTURE
     1 LPR         1

