### 
### Created by X-TOOL on Mon Sep 10 21:12:50 2018
### 

@<TRIPOS>MOLECULE
1j37_ligand
   28    28     1     0     0
SMALL
GAST_HUCK


@<TRIPOS>ATOM
      1 O2         15.3030   -1.2610   17.5100 O.co2     1 X8Z        -0.5666
      2 C9         14.7460   -2.4090   17.7410 C.2       1 X8Z         0.0603
      3 O3         14.8540   -3.3400   16.9830 O.co2     1 X8Z        -0.5666
      4 C8         13.9290   -2.4840   19.0320 C.3       1 X8Z         0.0971
      5 C7         14.7850   -2.7970   20.2280 C.3       1 X8Z        -0.0159
      6 C6         14.2390   -4.0250   20.9000 C.3       1 X8Z        -0.0288
      7 C5         13.0810   -4.5230   20.1270 C.3       1 X8Z         0.0362
      8 N          12.8860   -3.5530   18.9960 N.am      1 X8Z        -0.2572
      9 C4         11.9240   -3.5900   18.0660 C.2       1 X8Z         0.1838
     10 O1         11.8780   -2.6990   17.1680 O.2       1 X8Z        -0.3964
     11 C2         10.8730   -4.6980   18.1030 C.3       1 X8Z         0.0548
     12 C3         11.0970   -5.6510   16.9240 C.3       1 X8Z        -0.0446
     13 C1          9.5000   -4.0100   18.1130 C.3       1 X8Z         0.0101
     14 S           8.1180   -5.1660   18.1620 S.3       1 X8Z        -0.1756
     15 H1         13.4414   -1.5091   19.1796 H         1 X8Z         0.0728
     16 H2         14.7647   -1.9504   20.9300 H         1 X8Z         0.0306
     17 H3         15.8203   -2.9807   19.9049 H         1 X8Z         0.0306
     18 H4         13.9196   -3.7746   21.9224 H         1 X8Z         0.0286
     19 H5         15.0176   -4.8011   20.9388 H         1 X8Z         0.0286
     20 H6         12.1833   -4.5544   20.7619 H         1 X8Z         0.0524
     21 H7         13.2882   -5.5296   19.7350 H         1 X8Z         0.0524
     22 H8         10.9804   -5.2760   19.0327 H         1 X8Z         0.0543
     23 H9         10.3409   -6.4495   16.9492 H         1 X8Z         0.0257
     24 H10        12.1010   -6.0944   16.9965 H         1 X8Z         0.0257
     25 H11        11.0098   -5.0932   15.9799 H         1 X8Z         0.0257
     26 H12         9.4103   -3.3983   17.2032 H         1 X8Z         0.0401
     27 H13         9.4423   -3.3604   18.9988 H         1 X8Z         0.0401
     28 H14         8.1810   -5.7280   18.9964 H         1 X8Z         0.1018
@<TRIPOS>BOND
     1    1    2 ar 
     2    2    3 ar 
     3    2    4 1  
     4    4    5 1  
     5    4    8 1  
     6    5    6 1  
     7    6    7 1  
     8    7    8 1  
     9    8    9 am 
    10    9   10 2  
    11    9   11 1  
    12   11   12 1  
    13   11   13 1  
    14   13   14 1  
    15    4   15 1  
    16    5   16 1  
    17    5   17 1  
    18    6   18 1  
    19    6   19 1  
    20    7   20 1  
    21    7   21 1  
    22   11   22 1  
    23   12   23 1  
    24   12   24 1  
    25   12   25 1  
    26   13   26 1  
    27   13   27 1  
    28   14   28 1  
@<TRIPOS>SUBSTRUCTURE
     1 X8Z         1

