### 
### Created by X-TOOL on Mon Sep 10 21:12:48 2018
### 

@<TRIPOS>MOLECULE
1j4r_ligand
   87    90     1     0     0
SMALL
GAST_HUCK


@<TRIPOS>ATOM
      1 C01        26.1080   12.5010   25.8480 C.ar      1 001        -0.0140
      2 C02        25.4980   13.4760   26.6600 C.ar      1 001        -0.0220
      3 C03        26.0770   13.8120   27.9100 C.ar      1 001         0.1508
      4 C04        27.2710   13.1660   28.3470 C.ar      1 001         0.1958
      5 C05        27.8790   12.1900   27.5380 C.ar      1 001         0.1508
      6 C06        27.3000   11.8610   26.2890 C.ar      1 001        -0.0220
      7 O03        25.4930   14.7690   28.7090 O.3       1 001        -0.3169
      8 C07        24.3180   15.4540   28.2530 C.3       1 001         0.0582
      9 O04        27.8620   13.5160   29.5560 O.3       1 001        -0.2969
     10 C08        27.0810   13.3660   30.7660 C.3       1 001         0.0663
     11 O05        29.0040   11.5230   28.0010 O.3       1 001        -0.3169
     12 C09        29.8390   10.8120   27.0790 C.3       1 001         0.0582
     13 C10        25.5020   12.0550   24.5480 C.3       1 001         0.2853
     14 C11        26.4600   11.8800   23.4410 C.2       1 001         0.2183
     15 O11        26.8220   10.7470   23.1630 O.2       1 001        -0.3674
     16 N12        26.9580   12.9410   22.7610 N.am      1 001        -0.2555
     17 C12        26.6800   14.3710   23.1220 C.3       1 001         0.0359
     18 C13        26.3260   15.2550   21.8850 C.3       1 001        -0.0321
     19 C14        27.3440   15.0610   20.7410 C.3       1 001        -0.0469
     20 C15        27.5640   13.5710   20.4080 C.3       1 001        -0.0107
     21 C16        27.9380   12.7540   21.6590 C.3       1 001         0.1441
     22 C17        29.3200   13.1580   22.1470 C.2       1 001         0.2601
     23 O17        30.2350   13.2670   21.3540 O.2       1 001        -0.3678
     24 O18        29.5670   13.4060   23.4560 O.3       1 001        -0.2718
     25 C18        30.9210   13.7700   23.7570 C.3       1 001         0.0880
     26 C19        31.6030   12.6040   24.4680 C.3       1 001        -0.0202
     27 C20        33.0100   13.0100   24.9400 C.3       1 001        -0.0395
     28 C21        33.9540   11.8460   24.7210 C.3       1 001        -0.0128
     29 C22        34.6170   11.9980   23.3780 C.ar      1 001        -0.0150
     30 C23        35.5520   13.0340   23.1550 C.ar      1 001         0.0125
     31 N23        36.2040   13.1090   21.9800 N.ar      1 001        -0.3044
     32 C24        35.9870   12.2050   20.9830 C.ar      1 001         0.0042
     33 C25        35.0640   11.1610   21.1400 C.ar      1 001        -0.0405
     34 C26        34.3710   11.0620   22.3540 C.ar      1 001        -0.0404
     35 C27        30.9830   15.0380   24.6320 C.3       1 001        -0.0203
     36 C28        29.6070   15.6140   24.8810 C.3       1 001        -0.0406
     37 C29        29.2190   15.3260   26.3300 C.3       1 001        -0.0191
     38 C30        28.2530   16.3890   26.7840 C.ar      1 001        -0.0430
     39 C31        27.0480   16.5770   26.0930 C.ar      1 001        -0.0603
     40 C32        26.1480   17.5590   26.5090 C.ar      1 001        -0.0686
     41 C33        26.4540   18.3600   27.6170 C.ar      1 001        -0.0687
     42 C34        27.6620   18.1690   28.3070 C.ar      1 001        -0.0686
     43 C35        28.5610   17.1860   27.8890 C.ar      1 001        -0.0603
     44 F10        24.5090   12.8770   24.1440 F         1 001        -0.2633
     45 F11        24.9450   10.8550   24.7810 F         1 001        -0.2633
     46 H1         24.5897   13.9677   26.3311 H         1 001         0.0646
     47 H2         27.7701   11.1128   25.6611 H         1 001         0.0646
     48 H3         23.9952   16.1767   29.0169 H         1 001         0.0574
     49 H4         23.5140   14.7246   28.0754 H         1 001         0.0574
     50 H5         24.5437   15.9861   27.3171 H         1 001         0.0574
     51 H6         27.6819   13.6814   31.6317 H         1 001         0.0593
     52 H7         26.7898   12.3121   30.8862 H         1 001         0.0593
     53 H8         26.1780   13.9906   30.6994 H         1 001         0.0593
     54 H9         30.6758   10.3500   27.6234 H         1 001         0.0574
     55 H10        30.2326   11.5111   26.3265 H         1 001         0.0574
     56 H11        29.2498   10.0290   26.5794 H         1 001         0.0574
     57 H12        27.5736   14.7899   23.6079 H         1 001         0.0525
     58 H13        25.8342   14.3970   23.8248 H         1 001         0.0525
     59 H14        26.3272   16.3121   22.1890 H         1 001         0.0285
     60 H15        25.3247   14.9787   21.5230 H         1 001         0.0285
     61 H16        28.3052   15.5029   21.0425 H         1 001         0.0268
     62 H17        26.9703   15.5740   19.8426 H         1 001         0.0268
     63 H18        28.3770   13.4870   19.6719 H         1 001         0.0314
     64 H19        26.6375   13.1615   19.9793 H         1 001         0.0314
     65 H20        27.9545   11.6890   21.3843 H         1 001         0.0820
     66 H21        31.4499   13.9716   22.8138 H         1 001         0.0649
     67 H22        31.6851   11.7547   23.7738 H         1 001         0.0295
     68 H23        31.0001   12.3086   25.3393 H         1 001         0.0295
     69 H24        32.9814   13.2664   26.0093 H         1 001         0.0290
     70 H25        33.3565   13.8803   24.3633 H         1 001         0.0290
     71 H26        33.3888   10.9027   24.7485 H         1 001         0.0441
     72 H27        34.7192   11.8382   25.5111 H         1 001         0.0441
     73 H28        35.7439   13.7676   23.9297 H         1 001         0.0765
     74 H29        36.5371   12.2947   20.0533 H         1 001         0.0767
     75 H30        34.8908   10.4481   20.3420 H         1 001         0.0693
     76 H31        33.6483   10.2682   22.5047 H         1 001         0.0678
     77 H32        31.5986   15.7934   24.1217 H         1 001         0.0295
     78 H33        31.4425   14.7822   25.5982 H         1 001         0.0295
     79 H34        28.8796   15.1457   24.2016 H         1 001         0.0288
     80 H35        29.6224   16.7004   24.7094 H         1 001         0.0288
     81 H36        30.1166   15.3439   26.9655 H         1 001         0.0426
     82 H37        28.7418   14.3372   26.3973 H         1 001         0.0426
     83 H38        26.8148   15.9584   25.2339 H         1 001         0.0557
     84 H39        25.2147   17.7017   25.9764 H         1 001         0.0599
     85 H40        25.7591   19.1262   27.9412 H         1 001         0.0559
     86 H41        27.8971   18.7864   29.1664 H         1 001         0.0599
     87 H42        29.4949   17.0418   28.4202 H         1 001         0.0557
@<TRIPOS>BOND
     1    1   13 1  
     2    1    6 ar 
     3    1    2 ar 
     4    2    3 ar 
     5    3    7 1  
     6    3    4 ar 
     7    4    9 1  
     8    4    5 ar 
     9    5   11 1  
    10    5    6 ar 
    11   11   12 1  
    12    9   10 1  
    13    7    8 1  
    14   13   14 1  
    15   14   16 am 
    16   14   15 2  
    17   16   21 1  
    18   16   17 1  
    19   17   18 1  
    20   18   19 1  
    21   19   20 1  
    22   20   21 1  
    23   21   22 1  
    24   22   24 1  
    25   22   23 2  
    26   24   25 1  
    27   25   35 1  
    28   25   26 1  
    29   26   27 1  
    30   27   28 1  
    31   28   29 1  
    32   29   34 ar 
    33   29   30 ar 
    34   30   31 ar 
    35   31   32 ar 
    36   32   33 ar 
    37   33   34 ar 
    38   35   36 1  
    39   36   37 1  
    40   37   38 1  
    41   38   43 ar 
    42   38   39 ar 
    43   39   40 ar 
    44   40   41 ar 
    45   41   42 ar 
    46   42   43 ar 
    47   13   44 1  
    48   13   45 1  
    49    2   46 1  
    50    6   47 1  
    51    8   48 1  
    52    8   49 1  
    53    8   50 1  
    54   10   51 1  
    55   10   52 1  
    56   10   53 1  
    57   12   54 1  
    58   12   55 1  
    59   12   56 1  
    60   17   57 1  
    61   17   58 1  
    62   18   59 1  
    63   18   60 1  
    64   19   61 1  
    65   19   62 1  
    66   20   63 1  
    67   20   64 1  
    68   21   65 1  
    69   25   66 1  
    70   26   67 1  
    71   26   68 1  
    72   27   69 1  
    73   27   70 1  
    74   28   71 1  
    75   28   72 1  
    76   30   73 1  
    77   32   74 1  
    78   33   75 1  
    79   34   76 1  
    80   35   77 1  
    81   35   78 1  
    82   36   79 1  
    83   36   80 1  
    84   37   81 1  
    85   37   82 1  
    86   39   83 1  
    87   40   84 1  
    88   41   85 1  
    89   42   86 1  
    90   43   87 1  
@<TRIPOS>SUBSTRUCTURE
     1 001         1

