### 
### Created by X-TOOL on Mon Sep 10 21:12:49 2018
### 

@<TRIPOS>MOLECULE
1j5i_ligand
   42    44     1     0     0
SMALL
GAST_HUCK


@<TRIPOS>ATOM
      1 C1          0.6830    7.1240    1.2830 C.ar      1 NCZ        -0.0410
      2 C6          0.2690    6.7680   -0.0040 C.ar      1 NCZ        -0.0257
      3 C5         -0.5130    5.6060   -0.1660 C.ar      1 NCZ        -0.0201
      4 C7         -0.9360    5.1910   -1.4240 C.ar      1 NCZ        -0.0556
      5 C8         -0.5480    5.9130   -2.5360 C.ar      1 NCZ        -0.0243
      6 C9          0.2380    7.0730   -2.4050 C.ar      1 NCZ         0.1076
      7 C10         0.6290    7.5510   -1.1220 C.ar      1 NCZ         0.0837
      8 C11         1.0210    8.9340   -0.9690 C.2       1 NCZ         0.2480
      9 O3          1.4950    9.5480   -1.9250 O.2       1 NCZ        -0.3707
     10 O4          0.9320    9.6840    0.2910 O.3       1 NCZ        -0.2692
     11 C12         0.8290   11.1440    0.2320 C.3       1 NCZ         0.1500
     12 C13         0.3890   11.7390    1.5740 C.3       1 NCZ         0.1070
     13 C14        -0.9370   11.9400    1.5490 C.2       1 NCZ        -0.0650
     14 C15        -1.5270   11.7790    0.1960 C.2       1 NCZ        -0.0650
     15 C16        -0.3080   11.5460   -0.7200 C.3       1 NCZ         0.1070
     16 O6         -0.0260   12.7910   -1.4190 O.3       1 NCZ        -0.3797
     17 O5          1.0480   12.9880    1.7900 O.3       1 NCZ        -0.3797
     18 O2          0.5790    7.7470   -3.5890 O.3       1 NCZ        -0.3262
     19 C4         -0.8700    4.8870    0.9520 C.ar      1 NCZ        -0.0403
     20 C3         -0.4510    5.2860    2.2130 C.ar      1 NCZ        -0.0303
     21 C2          0.3320    6.4010    2.3900 C.ar      1 NCZ         0.0804
     22 O1          0.7360    6.7450    3.6700 O.3       1 NCZ        -0.3227
     23 C17         1.1760    8.0560    4.0800 C.3       1 NCZ         0.0599
     24 C18        -1.7310    3.6670    0.8740 C.3       1 NCZ        -0.0299
     25 H1          1.3039    8.0037    1.4081 H         1 NCZ         0.0394
     26 H2         -1.5620    4.3125   -1.5307 H         1 NCZ         0.0667
     27 H3         -0.8529    5.5818   -3.5221 H         1 NCZ         0.0557
     28 H4          1.7907   11.5698   -0.0901 H         1 NCZ         0.0740
     29 H5          0.6436   11.0431    2.3869 H         1 NCZ         0.0750
     30 H6         -1.5216   12.1954    2.4316 H         1 NCZ         0.0477
     31 H7         -2.5784   11.8167   -0.0850 H         1 NCZ         0.0477
     32 H8         -0.5017   10.7445   -1.4480 H         1 NCZ         0.0750
     33 H9          0.7233   12.6695   -1.9902 H         1 NCZ         0.2128
     34 H10         1.9877   12.8499    1.8084 H         1 NCZ         0.2128
     35 H11         1.5248    7.7985   -3.6616 H         1 NCZ         0.2526
     36 H12        -0.7482    4.7047    3.0784 H         1 NCZ         0.0470
     37 H13         1.4345    8.0383    5.1490 H         1 NCZ         0.0579
     38 H14         0.3687    8.7835    3.9101 H         1 NCZ         0.0579
     39 H15         2.0604    8.3460    3.4937 H         1 NCZ         0.0579
     40 H16        -1.9881    3.4662   -0.1765 H         1 NCZ         0.0406
     41 H17        -2.6524    3.8309    1.4521 H         1 NCZ         0.0406
     42 H18        -1.1859    2.8064    1.2890 H         1 NCZ         0.0406
@<TRIPOS>BOND
     1    1    2 ar 
     2    1   21 ar 
     3    1   25 1  
     4    2    3 ar 
     5    2    7 ar 
     6    3    4 ar 
     7    3   19 ar 
     8    4    5 ar 
     9    4   26 1  
    10    5    6 ar 
    11    5   27 1  
    12    6    7 ar 
    13    6   18 1  
    14    7    8 1  
    15    8    9 2  
    16    8   10 1  
    17   10   11 1  
    18   11   12 1  
    19   11   15 1  
    20   11   28 1  
    21   12   13 1  
    22   12   17 1  
    23   12   29 1  
    24   13   14 2  
    25   13   30 1  
    26   14   15 1  
    27   14   31 1  
    28   15   16 1  
    29   15   32 1  
    30   16   33 1  
    31   17   34 1  
    32   18   35 1  
    33   19   20 ar 
    34   19   24 1  
    35   20   21 ar 
    36   20   36 1  
    37   21   22 1  
    38   22   23 1  
    39   23   37 1  
    40   23   38 1  
    41   23   39 1  
    42   24   40 1  
    43   24   41 1  
    44   24   42 1  
@<TRIPOS>SUBSTRUCTURE
     1 NCZ         1

