### 
### Created by X-TOOL on Mon Sep 10 21:12:48 2018
### 

@<TRIPOS>MOLECULE
1jak_ligand
   31    31     1     0     0
SMALL
GAST_HUCK


@<TRIPOS>ATOM
      1 N1         -4.9210   66.0730   10.1950 N.4       1 IFG         0.2486
      2 C2         -5.3230   66.5970    8.8640 C.3       1 IFG         0.0937
      3 C3         -4.1330   66.9630    7.8870 C.3       1 IFG         0.1462
      4 C4         -2.9250   67.6140    8.5930 C.3       1 IFG         0.0983
      5 C5         -2.5140   66.7250    9.7690 C.3       1 IFG         0.0509
      6 C6         -1.2940   67.1970   10.5530 C.3       1 IFG         0.0543
      7 C7         -5.8370   64.3160    8.0960 C.2       1 IFG         0.1770
      8 C8         -6.6540   63.2520    7.4090 C.3       1 IFG         0.0258
      9 C9         -3.6480   66.5190   10.7820 C.3       1 IFG        -0.0239
     10 N2         -6.2190   65.6240    8.2000 N.am      1 IFG        -0.2433
     11 O7         -4.7800   63.9530    8.5930 O.2       1 IFG        -0.3972
     12 O3         -4.6120   67.8320    6.8690 O.3       1 IFG        -0.3814
     13 O4         -3.3200   68.8920    9.0900 O.3       1 IFG        -0.3884
     14 O6         -0.6840   66.1220   11.2590 O.3       1 IFG        -0.3945
     15 H1         -4.8740   65.0693   10.1154 H         1 IFG         0.2039
     16 H2         -5.6499   66.3249   10.8441 H         1 IFG         0.2039
     17 H3         -5.8907   67.5224    9.0410 H         1 IFG         0.1167
     18 H4         -3.7847   66.0309    7.4182 H         1 IFG         0.0700
     19 H5         -2.0866   67.7241    7.8895 H         1 IFG         0.0627
     20 H6         -2.2654   65.7437    9.3386 H         1 IFG         0.0401
     21 H7         -1.6072   67.9667   11.2737 H         1 IFG         0.0562
     22 H8         -0.5624   67.6264    9.8527 H         1 IFG         0.0562
     23 H9         -6.1243   62.2896    7.4653 H         1 IFG         0.0467
     24 H10        -6.8026   63.5276    6.3545 H         1 IFG         0.0467
     25 H11        -7.6313   63.1622    7.9058 H         1 IFG         0.0467
     26 H12        -3.3230   65.7625   11.5114 H         1 IFG         0.0819
     27 H13        -3.8244   67.4742   11.2982 H         1 IFG         0.0819
     28 H14        -7.0988   65.9220    7.8296 H         1 IFG         0.1906
     29 H15        -5.3555   67.4302    6.4352 H         1 IFG         0.2103
     30 H16        -2.5918   69.2895    9.5527 H         1 IFG         0.2099
     31 H17         0.0708   66.4460   11.7364 H         1 IFG         0.2094
@<TRIPOS>BOND
     1    2    1 1  
     2    1    9 1  
     3    2    3 1  
     4   10    2 1  
     5    3    4 1  
     6    3   12 1  
     7    4    5 1  
     8    4   13 1  
     9    5    6 1  
    10    9    5 1  
    11    6   14 1  
    12    7    8 1  
    13    7   10 am 
    14    7   11 2  
    15    1   15 1  
    16    1   16 1  
    17    2   17 1  
    18    3   18 1  
    19    4   19 1  
    20    5   20 1  
    21    6   21 1  
    22    6   22 1  
    23    8   23 1  
    24    8   24 1  
    25    8   25 1  
    26    9   26 1  
    27    9   27 1  
    28   10   28 1  
    29   12   29 1  
    30   13   30 1  
    31   14   31 1  
@<TRIPOS>SUBSTRUCTURE
     1 IFG         1

