### 
### Created by X-TOOL on Mon Sep 10 21:12:45 2018
### 

@<TRIPOS>MOLECULE
1jao_ligand
   43    43     1     0     0
SMALL
GAST_HUCK


@<TRIPOS>ATOM
      1 C1         28.1410   59.3310   50.4100 C.2       1 0D3         0.1840
      2 O1         27.9380   60.4170   49.8620 O.2       1 0D3        -0.3964
      3 C2         27.0550   58.6650   51.2520 C.3       1 0D3         0.0670
      4 C3         25.8220   58.4370   50.3520 C.3       1 0D3         0.0014
      5 C1'        25.8180   57.1130   49.5940 C.ar      1 0D3        -0.0405
      6 C2'        26.5800   56.0320   50.0170 C.ar      1 0D3        -0.0602
      7 C3'        26.5160   54.8120   49.3740 C.ar      1 0D3        -0.0686
      8 C4'        25.6920   54.6650   48.2970 C.ar      1 0D3        -0.0687
      9 C5'        24.9260   55.7290   47.8470 C.ar      1 0D3        -0.0686
     10 C6'        24.9970   56.9420   48.4960 C.ar      1 0D3        -0.0602
     11 C'         26.7860   59.5460   52.4960 C.3       1 0D3         0.0122
     12 S'         25.4920   58.9180   53.6320 S.3       1 0D3        -0.1754
     13 N          29.3000   58.6810   50.3180 N.am      1 0D3        -0.2655
     14 CA         30.4080   59.2270   49.5530 C.3       1 0D3         0.1281
     15 C          30.4740   58.6420   48.1610 C.2       1 0D3         0.2034
     16 O          30.2400   57.4560   47.9690 O.2       1 0D3        -0.3944
     17 CB         31.6840   59.0130   50.2740 C.3       1 0D3        -0.0244
     18 C1         32.1720   58.3430   45.3570 C.2       1 0D3         0.1960
     19 N1         32.1630   57.0380   45.6440 N.am      1 0D3        -0.2992
     20 O1         32.7810   58.7980   44.3830 O.2       1 0D3        -0.3951
     21 C2         30.9500   59.0920   45.8270 C.3       1 0D3         0.1198
     22 N2         30.8880   59.4780   47.2170 N.am      1 0D3        -0.2664
     23 H1         27.4126   57.6843   51.5989 H         1 0D3         0.0568
     24 H2         25.7807   59.2529   49.6154 H         1 0D3         0.0454
     25 H3         24.9243   58.4703   50.9868 H         1 0D3         0.0454
     26 H4         27.2389   56.1485   50.8699 H         1 0D3         0.0557
     27 H5         27.1152   53.9784   49.7219 H         1 0D3         0.0599
     28 H6         25.6358   53.7089   47.7892 H         1 0D3         0.0559
     29 H7         24.2747   55.6072   46.9891 H         1 0D3         0.0599
     30 H8         24.4003   57.7741   48.1402 H         1 0D3         0.0557
     31 H9         26.4779   60.5426   52.1470 H         1 0D3         0.0403
     32 H10        27.7249   59.6300   53.0630 H         1 0D3         0.0403
     33 H11        24.6174   58.8459   53.1361 H         1 0D3         0.1018
     34 H12        29.4093   57.8026   50.7832 H         1 0D3         0.1883
     35 H13        30.2487   60.3109   49.4546 H         1 0D3         0.0797
     36 H14        32.5130   59.4308   49.6840 H         1 0D3         0.0277
     37 H15        31.8456   57.9350   50.4213 H         1 0D3         0.0277
     38 H16        31.6410   59.5143   51.2522 H         1 0D3         0.0277
     39 H17        32.9325   56.4607   45.3709 H         1 0D3         0.1815
     40 H18        31.3868   56.6387   46.1319 H         1 0D3         0.1815
     41 H19        30.0768   58.4543   45.6248 H         1 0D3         0.0763
     42 H20        30.8789   60.0119   45.2280 H         1 0D3         0.0763
     43 H21        31.1654   60.4031   47.4762 H         1 0D3         0.1881
@<TRIPOS>BOND
     1    1    3 1  
     2    1    2 2  
     3    3   11 1  
     4    3    4 1  
     5    4    5 1  
     6    5   10 ar 
     7    5    6 ar 
     8    6    7 ar 
     9    7    8 ar 
    10    9    8 ar 
    11   10    9 ar 
    12   11   12 1  
    13   15   14 1  
    14   14   17 1  
    15   14   13 1  
    16   15   16 2  
    17   21   18 1  
    18   18   20 2  
    19   18   19 am 
    20   22   21 1  
    21   13    1 am 
    22   22   15 am 
    23    3   23 1  
    24    4   24 1  
    25    4   25 1  
    26    6   26 1  
    27    7   27 1  
    28    8   28 1  
    29    9   29 1  
    30   10   30 1  
    31   11   31 1  
    32   11   32 1  
    33   12   33 1  
    34   13   34 1  
    35   14   35 1  
    36   17   36 1  
    37   17   37 1  
    38   17   38 1  
    39   19   39 1  
    40   19   40 1  
    41   21   41 1  
    42   21   42 1  
    43   22   43 1  
@<TRIPOS>SUBSTRUCTURE
     1 0D3         1

