### 
### Created by X-TOOL on Mon Sep 10 21:12:45 2018
### 

@<TRIPOS>MOLECULE
1jaq_ligand
   43    42     1     0     0
SMALL
GAST_HUCK


@<TRIPOS>ATOM
      1 C1         26.8430   59.7710   53.4900 C.2       1 01S         0.2212
      2 O1         27.2550   58.6470   53.6670 O.2       1 01S        -0.3933
      3 C2         27.7710   60.8910   52.9840 C.3       1 01S         0.1391
      4 C3         28.1990   60.6030   51.5540 C.2       1 01S         0.2006
      5 O3         27.9860   61.4070   50.6410 O.2       1 01S        -0.3933
      6 C1'        29.0010   60.9470   53.8590 C.3       1 01S        -0.0139
      7 C2'        28.9460   61.9840   54.9840 C.3       1 01S        -0.0424
      8 C3'        29.2660   63.3870   54.4510 C.3       1 01S        -0.0624
      9 C4'        27.5730   61.9580   55.7150 C.3       1 01S        -0.0624
     10 N          25.5830   60.0800   53.7210 N.am      1 01S        -0.1620
     11 O5         24.7190   59.0810   54.1600 O.3       1 01S        -0.2716
     12 N          28.8560   59.4730   51.3550 N.am      1 01S        -0.2637
     13 CA         29.3250   59.1540   50.0270 C.3       1 01S         0.1283
     14 C          28.2420   58.4100   49.2240 C.2       1 01S         0.2034
     15 O          28.4690   58.0280   48.0740 O.2       1 01S        -0.3944
     16 CB         30.6140   58.3850   50.1030 C.3       1 01S        -0.0244
     17 C1         25.9370   56.1170   48.8290 C.2       1 01S         0.1960
     18 N1         26.3920   55.2060   49.6780 N.am      1 01S        -0.2992
     19 O1         25.1680   55.8360   47.9080 O.2       1 01S        -0.3951
     20 C2         25.9430   57.5180   49.3080 C.3       1 01S         0.1198
     21 N2         27.1300   58.1020   49.9100 N.am      1 01S        -0.2664
     22 H1         27.2414   61.8543   53.0240 H         1 01S         0.0774
     23 H2         29.8646   61.1822   53.2196 H         1 01S         0.0318
     24 H3         29.1414   59.9558   54.3148 H         1 01S         0.0318
     25 H4         29.7201   61.7205   55.7198 H         1 01S         0.0298
     26 H5         29.2200   64.1122   55.2768 H         1 01S         0.0232
     27 H6         28.5317   63.6626   53.6798 H         1 01S         0.0232
     28 H7         30.2756   63.3920   54.0145 H         1 01S         0.0232
     29 H8         27.3734   60.9412   56.0842 H         1 01S         0.0232
     30 H9         26.7790   62.2562   55.0146 H         1 01S         0.0232
     31 H10        27.5958   62.6581   56.5631 H         1 01S         0.0232
     32 H11        25.2539   61.0142   53.5835 H         1 01S         0.2218
     33 H12        23.8509   59.4465   54.2838 H         1 01S         0.2490
     34 H13        29.0262   58.8464   52.1155 H         1 01S         0.1884
     35 H14        29.5318   60.0998   49.5049 H         1 01S         0.0797
     36 H15        30.9603   58.1484   49.0861 H         1 01S         0.0277
     37 H16        30.4516   57.4514   50.6615 H         1 01S         0.0277
     38 H17        31.3736   58.9924   50.6169 H         1 01S         0.0277
     39 H18        26.4134   54.2420   49.4129 H         1 01S         0.1815
     40 H19        26.7138   55.4829   50.5834 H         1 01S         0.1815
     41 H20        25.1427   57.5944   50.0588 H         1 01S         0.0763
     42 H21        25.6926   58.1455   48.4400 H         1 01S         0.0763
     43 H22        27.1176   58.2851   50.8930 H         1 01S         0.1881
@<TRIPOS>BOND
     1    1   10 am 
     2    3    1 1  
     3    1    2 2  
     4    3    6 1  
     5    4    3 1  
     6    4    5 2  
     7    6    7 1  
     8    7    9 1  
     9    7    8 1  
    10   10   11 1  
    11   14   13 1  
    12   13   16 1  
    13   13   12 1  
    14   14   15 2  
    15   20   17 1  
    16   17   19 2  
    17   17   18 am 
    18   21   20 1  
    19   12    4 am 
    20   21   14 am 
    21    3   22 1  
    22    6   23 1  
    23    6   24 1  
    24    7   25 1  
    25    8   26 1  
    26    8   27 1  
    27    8   28 1  
    28    9   29 1  
    29    9   30 1  
    30    9   31 1  
    31   10   32 1  
    32   11   33 1  
    33   12   34 1  
    34   13   35 1  
    35   16   36 1  
    36   16   37 1  
    37   16   38 1  
    38   18   39 1  
    39   18   40 1  
    40   20   41 1  
    41   20   42 1  
    42   21   43 1  
@<TRIPOS>SUBSTRUCTURE
     1 01S         1

