### 
### Created by X-TOOL on Mon Sep 10 21:12:48 2018
### 

@<TRIPOS>MOLECULE
1jd0_ligand
   19    19     1     0     0
SMALL
GAST_HUCK


@<TRIPOS>ATOM
      1 C1         17.7910    5.5370   25.4360 C.2       1 AZM         0.2562
      2 C2         18.3440    7.6770   25.9060 C.2       1 AZM         0.2252
      3 C3         20.0180    9.4550   25.9800 C.2       1 AZM         0.2120
      4 C4         21.1630    8.5180   26.3180 C.3       1 AZM         0.0337
      5 N1         16.9530    3.1160   26.1670 N.am      1 AZM        -0.2565
      6 N2         17.0840    7.4740   26.1280 N.2       1 AZM        -0.2573
      7 N3         16.7400    6.1820   25.8430 N.2       1 AZM        -0.2476
      8 N4         18.7460    8.9460   26.1660 N.am      1 AZM        -0.1925
      9 O1         19.0790    3.3380   24.8410 O.2       1 AZM        -0.1452
     10 O2         17.0690    3.7740   23.6530 O.2       1 AZM        -0.1452
     11 O3         20.2920   10.5820   25.5720 O.2       1 AZM        -0.3804
     12 S1         17.7110    3.8300   24.9650 S.o2      1 AZM         0.0991
     13 S2         19.2630    6.3840   25.3560 S.3       1 AZM         0.0874
     14 H1         22.1203    9.0270   26.1324 H         1 AZM         0.0474
     15 H2         21.0983    7.6180   25.6888 H         1 AZM         0.0474
     16 H3         21.1004    8.2299   27.3777 H         1 AZM         0.0474
     17 H4         16.7822    2.1312   26.1359 H         1 AZM         0.1638
     18 H5         16.6471    3.6519   26.9540 H         1 AZM         0.1638
     19 H6         18.0562    9.5737   26.5268 H         1 AZM         0.2411
@<TRIPOS>BOND
     1    1    7 2  
     2    1   12 1  
     3   13    1 1  
     4    2    6 2  
     5    8    2 1  
     6    2   13 1  
     7    3    4 1  
     8    3    8 am 
     9    3   11 2  
    10   12    5 am 
    11    6    7 1  
    12   12    9 2  
    13   12   10 2  
    14    4   14 1  
    15    4   15 1  
    16    4   16 1  
    17    5   17 1  
    18    5   18 1  
    19    8   19 1  
@<TRIPOS>SUBSTRUCTURE
     1 AZM         1

