### 
### Created by X-TOOL on Mon Sep 10 21:12:49 2018
### 

@<TRIPOS>MOLECULE
1jdj_ligand
   13    14     1     0     0
SMALL
GAST_HUCK


@<TRIPOS>ATOM
      1 N9         33.1880   55.0960   30.8680 N.pl3     1 CFP        -0.2336
      2 C8         33.8130   55.9020   31.7990 C.2       1 CFP         0.1088
      3 N7         35.1160   55.6990   31.9000 N.2       1 CFP        -0.2953
      4 C5         35.3780   54.6930   30.9770 C.ar      1 CFP         0.0952
      5 C6         36.5720   53.9840   30.5580 C.ar      1 CFP         0.1333
      6 CL6        37.8160   54.1920   31.0460 Cl        1 CFP        -0.0314
      7 N1         36.4470   53.0080   29.5770 N.ar      1 CFP        -0.2331
      8 C2         35.2200   52.7380   29.0330 C.ar      1 CFP         0.2758
      9 N3         34.0450   53.3380   29.3490 N.ar      1 CFP        -0.2250
     10 C4         34.1880   54.3050   30.3260 C.ar      1 CFP         0.1619
     11 F2         35.1770   52.0260   28.3270 F         1 CFP        -0.1326
     12 H1         32.1867   55.0852   30.6267 H         1 CFP         0.2397
     13 H2         33.2801   56.6396   32.3972 H         1 CFP         0.1363
@<TRIPOS>BOND
     1    1    2 1  
     2    1   10 1  
     3    2    3 2  
     4    3    4 1  
     5    4    5 ar 
     6    4   10 ar 
     7    5    6 1  
     8    5    7 ar 
     9    7    8 ar 
    10    8    9 ar 
    11    8   11 1  
    12    9   10 ar 
    13    1   12 1  
    14    2   13 1  
@<TRIPOS>SUBSTRUCTURE
     1 CFP         1

