### 
### Created by X-TOOL on Mon Sep 10 21:12:46 2018
### 

@<TRIPOS>MOLECULE
1jet_ligand
   57    56     1     0     0
SMALL
GAST_HUCK


@<TRIPOS>ATOM
      1 N           6.7290   16.4500   14.9920 N.4       1 LYS         0.2379
      2 CA          6.2530   17.7560   14.4370 C.3       1 LYS         0.0650
      3 C           5.0450   18.2510   15.2150 C.2       1 LYS         0.2267
      4 O           4.2800   17.4480   15.7620 O.2       1 LYS        -0.3907
      5 CB          5.9680   17.6540   12.9460 C.3       1 LYS         0.0080
      6 CG          5.1180   16.4580   12.5480 C.3       1 LYS        -0.0410
      7 CD          4.9780   16.3570   11.0330 C.3       1 LYS        -0.0123
      8 CE          6.2490   15.7930   10.4040 C.3       1 LYS        -0.0354
      9 NZ          6.4830   14.3920   10.8750 N.4       1 LYS         0.2185
     10 N           4.9230   19.5660   15.3190 N.am      1 ALA        -0.2613
     11 CA          3.8390   20.1950   16.0660 C.3       1 ALA         0.1283
     12 C           2.5280   20.1380   15.3050 C.2       1 ALA         0.2031
     13 O           2.4620   20.4270   14.1110 O.2       1 ALA        -0.3944
     14 CB          4.2130   21.6510   16.3500 C.3       1 ALA        -0.0244
     15 N           1.4530   19.7490   16.0220 N.am      1 LYS        -0.2695
     16 CA          0.1430   19.6800   15.4080 C.3       1 LYS         0.0944
     17 C          -0.8750   20.5130   16.1950 C.2       1 LYS         0.0601
     18 O          -1.9550   20.7840   15.6090 O.co2     1 LYS        -0.5666
     19 CB         -0.3480   18.2320   15.2750 C.3       1 LYS        -0.0177
     20 CG         -1.6030   18.1240   14.4160 C.3       1 LYS        -0.0446
     21 CD         -1.5520   17.0510   13.3670 C.3       1 LYS        -0.0125
     22 CE         -2.5720   17.3320   12.2680 C.3       1 LYS        -0.0354
     23 NZ         -3.8410   17.8600   12.8360 N.4       1 LYS         0.2185
     24 OXT        -0.5530   20.9080   17.3330 O.co2     1 LYS        -0.5666
     25 H1          7.5295   16.1338   14.4673 H         1 LYS         0.2015
     26 H2          5.9911   15.7668   14.9234 H         1 LYS         0.2015
     27 H3          6.9871   16.5699   15.9590 H         1 LYS         0.2015
     28 H4          7.0600   18.4917   14.5694 H         1 LYS         0.1098
     29 H5          6.9295   17.5839   12.4162 H         1 LYS         0.0346
     30 H6          5.4427   18.5684   12.6331 H         1 LYS         0.0346
     31 H7          4.1181   16.5648   12.9938 H         1 LYS         0.0270
     32 H8          5.5918   15.5401   12.9259 H         1 LYS         0.0270
     33 H9          4.7869   17.3591   10.6215 H         1 LYS         0.0317
     34 H10         4.1332   15.6948   10.7929 H         1 LYS         0.0317
     35 H11         7.1056   16.4204   10.6914 H         1 LYS         0.0813
     36 H12         6.1440   15.7951    9.3090 H         1 LYS         0.0813
     37 H13         7.3244   14.0317   10.4527 H         1 LYS         0.1994
     38 H14         5.7006   13.8138   10.6114 H         1 LYS         0.1994
     39 H15         6.5818   14.3868   11.8781 H         1 LYS         0.1994
     40 H16         5.5991   20.1493   14.8687 H         1 ALA         0.1884
     41 H17         3.7127   19.6632   17.0206 H         1 ALA         0.0797
     42 H18         3.4015   22.1348   16.9134 H         1 ALA         0.0277
     43 H19         4.3666   22.1823   15.3992 H         1 ALA         0.0277
     44 H20         5.1397   21.6828   16.9417 H         1 ALA         0.0277
     45 H21         1.5618   19.5062   16.9860 H         1 LYS         0.1875
     46 H22         0.2233   20.1047   14.3965 H         1 LYS         0.0726
     47 H23        -0.5712   17.8404   16.2784 H         1 LYS         0.0305
     48 H24         0.4487   17.6290   14.8149 H         1 LYS         0.0305
     49 H25        -1.7580   19.0894   13.9120 H         1 LYS         0.0269
     50 H26        -2.4556   17.9154   15.0789 H         1 LYS         0.0269
     51 H27        -1.7778   16.0796   13.8310 H         1 LYS         0.0317
     52 H28        -0.5442   17.0219   12.9271 H         1 LYS         0.0317
     53 H29        -2.7824   16.3982   11.7261 H         1 LYS         0.0813
     54 H30        -2.1543   18.0740   11.5716 H         1 LYS         0.0813
     55 H31        -4.4953   18.0365   12.0898 H         1 LYS         0.1994
     56 H32        -3.6561   18.7185   13.3308 H         1 LYS         0.1994
     57 H33        -4.2317   17.1829   13.4723 H         1 LYS         0.1994
@<TRIPOS>BOND
     1    3    2 1  
     2    2    5 1  
     3    2    1 1  
     4    5    6 1  
     5    6    7 1  
     6    7    8 1  
     7    8    9 1  
     8    3    4 2  
     9   12   11 1  
    10   11   14 1  
    11   11   10 1  
    12   12   13 2  
    13   16   17 1  
    14   16   19 1  
    15   15   16 1  
    16   19   20 1  
    17   20   21 1  
    18   21   22 1  
    19   22   23 1  
    20   17   24 ar 
    21   17   18 ar 
    22   10    3 am 
    23   12   15 am 
    24    1   25 1  
    25    1   26 1  
    26    1   27 1  
    27    2   28 1  
    28    5   29 1  
    29    5   30 1  
    30    6   31 1  
    31    6   32 1  
    32    7   33 1  
    33    7   34 1  
    34    8   35 1  
    35    8   36 1  
    36    9   37 1  
    37    9   38 1  
    38    9   39 1  
    39   10   40 1  
    40   11   41 1  
    41   14   42 1  
    42   14   43 1  
    43   14   44 1  
    44   15   45 1  
    45   16   46 1  
    46   19   47 1  
    47   19   48 1  
    48   20   49 1  
    49   20   50 1  
    50   21   51 1  
    51   21   52 1  
    52   22   53 1  
    53   22   54 1  
    54   23   55 1  
    55   23   56 1  
    56   23   57 1  
@<TRIPOS>SUBSTRUCTURE
     1 LYS         1

