### 
### Created by X-TOOL on Mon Sep 10 21:12:46 2018
### 

@<TRIPOS>MOLECULE
1jeu_ligand
   62    61     1     0     0
SMALL
GAST_HUCK


@<TRIPOS>ATOM
      1 N           6.9710   16.6310   15.1610 N.4       1 LYS         0.2379
      2 CA          6.4570   17.9140   14.5770 C.3       1 LYS         0.0650
      3 C           5.2300   18.4070   15.3260 C.2       1 LYS         0.2267
      4 O           4.4710   17.5920   15.8650 O.2       1 LYS        -0.3907
      5 CB          6.2050   17.7380   13.0900 C.3       1 LYS         0.0080
      6 CG          5.3260   16.5730   12.6920 C.3       1 LYS        -0.0410
      7 CD          5.1880   16.4730   11.1790 C.3       1 LYS        -0.0123
      8 CE          6.4370   15.9090   10.5280 C.3       1 LYS        -0.0354
      9 NZ          6.6940   14.5080   10.9900 N.4       1 LYS         0.2185
     10 N           5.0250   19.7160   15.4110 N.am      1 GLU        -0.2609
     11 CA          3.9020   20.3030   16.1320 C.3       1 GLU         0.1325
     12 C           2.5820   20.1570   15.3830 C.2       1 GLU         0.2035
     13 O           2.5260   20.3750   14.1830 O.2       1 GLU        -0.3944
     14 CB          4.1800   21.7860   16.4140 C.3       1 GLU        -0.0008
     15 CG          5.4870   22.0530   17.1320 C.3       1 GLU         0.0044
     16 CD          5.5070   21.7130   18.5990 C.2       1 GLU         0.0350
     17 OE1         4.4800   21.2770   19.1650 O.co2     1 GLU        -0.5690
     18 OE2         6.5720   21.8810   19.2410 O.co2     1 GLU        -0.5690
     19 N           1.5160   19.7930   16.1120 N.am      1 LYS        -0.2695
     20 CA          0.1920   19.6270   15.5440 C.3       1 LYS         0.0944
     21 C          -0.8350   20.5300   16.2310 C.2       1 LYS         0.0601
     22 O          -1.8260   20.8750   15.5450 O.co2     1 LYS        -0.5666
     23 CB         -0.3440   18.1940   15.4970 C.3       1 LYS        -0.0177
     24 CG         -1.1830   18.0360   14.2050 C.3       1 LYS        -0.0446
     25 CD         -2.1660   16.9100   14.2770 C.3       1 LYS        -0.0125
     26 CE         -3.3420   17.1560   13.3350 C.3       1 LYS        -0.0354
     27 NZ         -2.9680   16.9360   11.9100 N.4       1 LYS         0.2185
     28 OXT        -0.6330   20.8920   17.4010 O.co2     1 LYS        -0.5666
     29 H1          7.7828   16.3287   14.6456 H         1 LYS         0.2015
     30 H2          6.2542   15.9246   15.1034 H         1 LYS         0.2015
     31 H3          7.2214   16.7777   16.1263 H         1 LYS         0.2015
     32 H4          7.2408   18.6769   14.6938 H         1 LYS         0.1098
     33 H5          7.1800   17.6053   12.5983 H         1 LYS         0.0346
     34 H6          5.7297   18.6582   12.7195 H         1 LYS         0.0346
     35 H7          4.3281   16.7101   13.1341 H         1 LYS         0.0270
     36 H8          5.7712   15.6421   13.0731 H         1 LYS         0.0270
     37 H9          4.9992   17.4777   10.7729 H         1 LYS         0.0317
     38 H10         4.3377   15.8163   10.9430 H         1 LYS         0.0317
     39 H11         7.2981   16.5396   10.7942 H         1 LYS         0.0813
     40 H12         6.3056   15.9097    9.4359 H         1 LYS         0.0813
     41 H13         7.5268   14.1550   10.5452 H         1 LYS         0.1994
     42 H14         5.9094   13.9243   10.7455 H         1 LYS         0.1994
     43 H15         6.8188   14.5016   11.9902 H         1 LYS         0.1994
     44 H16         5.6724   20.3292   14.9584 H         1 GLU         0.1885
     45 H17         3.8054   19.7775   17.0935 H         1 GLU         0.0801
     46 H18         3.3605   22.1776   17.0346 H         1 GLU         0.0330
     47 H19         4.2001   22.3209   15.4530 H         1 GLU         0.0330
     48 H20         5.7160   23.1240   17.0301 H         1 GLU         0.0433
     49 H21         6.2715   21.4616   16.6372 H         1 GLU         0.0433
     50 H22         1.6400   19.6289   17.0906 H         1 LYS         0.1875
     51 H23         0.2699   19.9613   14.4989 H         1 LYS         0.0726
     52 H24        -0.9755   18.0031   16.3772 H         1 LYS         0.0305
     53 H25         0.4947   17.4824   15.4861 H         1 LYS         0.0305
     54 H26        -0.4989   17.8501   13.3639 H         1 LYS         0.0269
     55 H27        -1.7345   18.9714   14.0292 H         1 LYS         0.0269
     56 H28        -2.5412   16.8241   15.3074 H         1 LYS         0.0317
     57 H29        -1.6640   15.9741   13.9904 H         1 LYS         0.0317
     58 H30        -3.6838   18.1944   13.4566 H         1 LYS         0.0813
     59 H31        -4.1587   16.4679   13.5985 H         1 LYS         0.0813
     60 H32        -3.7686   17.1079   11.3221 H         1 LYS         0.1994
     61 H33        -2.6588   15.9846   11.7868 H         1 LYS         0.1994
     62 H34        -2.2236   17.5667   11.6567 H         1 LYS         0.1994
@<TRIPOS>BOND
     1    2    1 1  
     2    2    5 1  
     3    3    2 1  
     4    3    4 2  
     5    5    6 1  
     6    6    7 1  
     7    7    8 1  
     8    8    9 1  
     9   11   10 1  
    10   11   14 1  
    11   12   11 1  
    12   12   13 2  
    13   14   15 1  
    14   15   16 1  
    15   16   18 ar 
    16   16   17 ar 
    17   10    3 am 
    18   19   20 1  
    19   20   23 1  
    20   20   21 1  
    21   21   22 ar 
    22   21   28 ar 
    23   23   24 1  
    24   24   25 1  
    25   25   26 1  
    26   26   27 1  
    27   12   19 am 
    28    1   29 1  
    29    1   30 1  
    30    1   31 1  
    31    2   32 1  
    32    5   33 1  
    33    5   34 1  
    34    6   35 1  
    35    6   36 1  
    36    7   37 1  
    37    7   38 1  
    38    8   39 1  
    39    8   40 1  
    40    9   41 1  
    41    9   42 1  
    42    9   43 1  
    43   10   44 1  
    44   11   45 1  
    45   14   46 1  
    46   14   47 1  
    47   15   48 1  
    48   15   49 1  
    49   19   50 1  
    50   20   51 1  
    51   23   52 1  
    52   23   53 1  
    53   24   54 1  
    54   24   55 1  
    55   25   56 1  
    56   25   57 1  
    57   26   58 1  
    58   26   59 1  
    59   27   60 1  
    60   27   61 1  
    61   27   62 1  
@<TRIPOS>SUBSTRUCTURE
     1 LYS         1

