### 
### Created by X-TOOL on Mon Sep 10 21:12:46 2018
### 

@<TRIPOS>MOLECULE
1jev_ligand
   71    72     1     0     0
SMALL
GAST_HUCK


@<TRIPOS>ATOM
      1 N           6.8620   16.6290   15.1970 N.4       1 LYS         0.2379
      2 CA          6.3920   17.9340   14.6200 C.3       1 LYS         0.0650
      3 C           5.1030   18.3620   15.3010 C.2       1 LYS         0.2268
      4 O           4.3370   17.5010   15.7230 O.2       1 LYS        -0.3907
      5 CB          6.2400   17.8330   13.1120 C.3       1 LYS         0.0080
      6 CG          5.3540   16.6850   12.6460 C.3       1 LYS        -0.0410
      7 CD          5.3180   16.6000   11.1250 C.3       1 LYS        -0.0123
      8 CE          6.6030   15.9860   10.5700 C.3       1 LYS        -0.0354
      9 NZ          6.7150   14.5550   10.9660 N.4       1 LYS         0.2185
     10 N           4.8910   19.6600   15.4540 N.am      1 TRP        -0.2600
     11 CA          3.6920   20.1550   16.1270 C.3       1 TRP         0.1353
     12 C           2.4620   20.0900   15.2250 C.2       1 TRP         0.2046
     13 O           2.5160   20.3800   14.0430 O.2       1 TRP        -0.3943
     14 CB          3.8860   21.6000   16.6060 C.3       1 TRP         0.0042
     15 CG          4.9530   21.7050   17.6590 C.2       1 TRP        -0.0418
     16 CD1         6.1460   22.3450   17.5650 C.2       1 TRP         0.0167
     17 CD2         4.9170   21.1080   18.9620 C.ar      1 TRP        -0.0214
     18 NE1         6.8600   22.1910   18.7300 N.pl3     1 TRP        -0.2890
     19 CE2         6.1270   21.4330   19.6020 C.ar      1 TRP         0.0603
     20 CE3         3.9680   20.3360   19.6490 C.ar      1 TRP        -0.0747
     21 CZ2         6.4170   21.0100   20.9010 C.ar      1 TRP        -0.0443
     22 CZ3         4.2640   19.9040   20.9250 C.ar      1 TRP        -0.0792
     23 CH2         5.4830   20.2430   21.5420 C.ar      1 TRP        -0.0768
     24 N           1.3330   19.6990   15.8410 N.am      1 LYS        -0.2694
     25 CA          0.0750   19.6230   15.1390 C.3       1 LYS         0.0944
     26 C          -1.0010   20.4270   15.8820 C.2       1 LYS         0.0601
     27 O          -1.9790   20.8010   15.1960 O.co2     1 LYS        -0.5666
     28 CB         -0.4160   18.1660   15.0560 C.3       1 LYS        -0.0177
     29 CG         -1.4650   18.0070   13.9580 C.3       1 LYS        -0.0446
     30 CD         -2.3620   16.8230   14.1800 C.3       1 LYS        -0.0125
     31 CE         -3.4910   16.8170   13.1640 C.3       1 LYS        -0.0354
     32 NZ         -2.9740   16.8470   11.7710 N.4       1 LYS         0.2185
     33 OXT        -0.8210   20.6520   17.0920 O.co2     1 LYS        -0.5666
     34 H1          7.7170   16.3492   14.7424 H         1 LYS         0.2015
     35 H2          6.1571   15.9235   15.0505 H         1 LYS         0.2015
     36 H3          7.0273   16.7387   16.1853 H         1 LYS         0.2015
     37 H4          7.1554   18.6977   14.8294 H         1 LYS         0.1098
     38 H5          7.2395   17.6964   12.6735 H         1 LYS         0.0346
     39 H6          5.8045   18.7745   12.7460 H         1 LYS         0.0346
     40 H7          4.3323   16.8451   13.0208 H         1 LYS         0.0270
     41 H8          5.7486   15.7406   13.0490 H         1 LYS         0.0270
     42 H9          5.1982   17.6127   10.7127 H         1 LYS         0.0317
     43 H10         4.4637   15.9771   10.8215 H         1 LYS         0.0317
     44 H11         7.4678   16.5390   10.9654 H         1 LYS         0.0813
     45 H12         6.5928   16.0573    9.4724 H         1 LYS         0.0813
     46 H13         7.5672   14.1684   10.5913 H         1 LYS         0.1994
     47 H14         5.9260   14.0432   10.6033 H         1 LYS         0.1994
     48 H15         6.7278   14.4846   11.9714 H         1 LYS         0.1994
     49 H16         5.5626   20.3125   15.1031 H         1 TRP         0.1886
     50 H17         3.5100   19.5181   17.0052 H         1 TRP         0.0815
     51 H18         2.9368   21.9660   17.0244 H         1 TRP         0.0397
     52 H19         4.1726   22.2237   15.7465 H         1 TRP         0.0397
     53 H20         6.4884   22.9003   16.6930 H         1 TRP         0.0795
     54 H21         7.7944   22.5825   18.9160 H         1 TRP         0.2216
     55 H22         3.0208   20.0840   19.1860 H         1 TRP         0.0540
     56 H23         7.3491   21.2798   21.3842 H         1 TRP         0.0541
     57 H24         3.5464   19.2936   21.4613 H         1 TRP         0.0510
     58 H25         5.6859   19.8888   22.5462 H         1 TRP         0.0530
     59 H26         1.3660   19.4547   16.8101 H         1 LYS         0.1875
     60 H27         0.2055   20.0273   14.1244 H         1 LYS         0.0726
     61 H28        -0.8587   17.8794   16.0213 H         1 LYS         0.0305
     62 H29         0.4388   17.5098   14.8353 H         1 LYS         0.0305
     63 H30        -0.9495   17.8821   12.9943 H         1 LYS         0.0269
     64 H31        -2.0835   18.9162   13.9279 H         1 LYS         0.0269
     65 H32        -2.7866   16.8747   15.1934 H         1 LYS         0.0317
     66 H33        -1.7750   15.8987   14.0751 H         1 LYS         0.0317
     67 H34        -4.1242   17.7013   13.3288 H         1 LYS         0.0813
     68 H35        -4.0909   15.9055   13.3024 H         1 LYS         0.0813
     69 H36        -3.7480   16.8421   11.1252 H         1 LYS         0.1994
     70 H37        -2.3965   16.0368   11.6094 H         1 LYS         0.1994
     71 H38        -2.4270   17.6824   11.6335 H         1 LYS         0.1994
@<TRIPOS>BOND
     1    2    1 1  
     2    2    5 1  
     3    3    2 1  
     4    3    4 2  
     5    5    6 1  
     6    6    7 1  
     7    7    8 1  
     8    8    9 1  
     9   11   10 1  
    10   11   14 1  
    11   12   11 1  
    12   12   13 2  
    13   14   15 1  
    14   15   16 2  
    15   15   17 1  
    16   17   20 ar 
    17   17   19 ar 
    18   19   21 ar 
    19   19   18 1  
    20   16   18 1  
    21   21   23 ar 
    22   22   23 ar 
    23   20   22 ar 
    24   10    3 am 
    25   24   25 1  
    26   25   28 1  
    27   25   26 1  
    28   26   27 ar 
    29   26   33 ar 
    30   28   29 1  
    31   29   30 1  
    32   30   31 1  
    33   31   32 1  
    34   12   24 am 
    35    1   34 1  
    36    1   35 1  
    37    1   36 1  
    38    2   37 1  
    39    5   38 1  
    40    5   39 1  
    41    6   40 1  
    42    6   41 1  
    43    7   42 1  
    44    7   43 1  
    45    8   44 1  
    46    8   45 1  
    47    9   46 1  
    48    9   47 1  
    49    9   48 1  
    50   10   49 1  
    51   11   50 1  
    52   14   51 1  
    53   14   52 1  
    54   16   53 1  
    55   18   54 1  
    56   20   55 1  
    57   21   56 1  
    58   22   57 1  
    59   23   58 1  
    60   24   59 1  
    61   25   60 1  
    62   28   61 1  
    63   28   62 1  
    64   29   63 1  
    65   29   64 1  
    66   30   65 1  
    67   30   66 1  
    68   31   67 1  
    69   31   68 1  
    70   32   69 1  
    71   32   70 1  
    72   32   71 1  
@<TRIPOS>SUBSTRUCTURE
     1 LYS         1

