### 
### Created by X-TOOL on Fri Sep 26 17:34:13 2014
### 

@<TRIPOS>MOLECULE
1jfh_ligand
   51    52     1     0     0
SMALL
GAST_HUCK


@<TRIPOS>ATOM
      1 C1         -7.7630   41.7280   20.9390 C.3       1 MA2         0.1333
      2 C2         -8.7000   40.5230   20.8400 C.3       1 MA2         0.1175
      3 C3         -9.9900   40.9060   20.1030 C.3       1 MA2         0.0985
      4 C4        -10.6350   42.1250   20.7640 C.3       1 MA2         0.0618
      5 C5         -9.6030   43.2570   20.8020 C.3       1 MA2         0.0974
      6 C6        -10.1120   44.5210   21.4700 C.3       1 MA2         0.0716
      7 C7        -11.7110   42.8030   18.2010 C.3       1 MA2        -0.0177
      8 O2         -8.0500   39.4700   20.1440 O.3       1 MA2        -0.3858
      9 O3        -10.8980   39.8140   20.1240 O.3       1 MA2        -0.3879
     10 S4        -12.2020   42.6460   19.9550 S.3       1 MA2        -0.1555
     11 O5         -8.4440   42.8240   21.5340 O.3       1 MA2        -0.3568
     12 O6        -10.5330   44.2630   22.8010 O.3       1 MA2        -0.3924
     13 C1         -2.5600   43.0970   18.8850 C.3       1 MA2         0.1875
     14 C2         -3.0190   41.6780   18.5080 C.3       1 MA2         0.1327
     15 C3         -4.5380   41.6070   18.3430 C.3       1 MA2         0.1001
     16 C4         -5.2450   42.1520   19.5860 C.3       1 MA2         0.0646
     17 C5         -4.7040   43.5570   19.8750 C.3       1 MA2         0.0990
     18 C6         -5.2770   44.2090   21.1200 C.3       1 MA2         0.0716
     19 C7         -2.5540   45.3920   18.0990 C.3       1 MA2         0.0395
     20 O1         -2.8460   43.9980   17.8150 O.3       1 MA2        -0.3520
     21 O2         -2.3920   41.2530   17.3060 O.3       1 MA2        -0.3842
     22 O3         -4.9340   40.2600   18.1230 O.3       1 MA2        -0.3879
     23 S4         -7.0590   42.1610   19.3180 S.3       1 MA2        -0.1184
     24 O5         -3.2750   43.5090   20.0410 O.3       1 MA2        -0.3420
     25 O6         -4.9180   43.4960   22.2900 O.3       1 MA2        -0.3924
     26 H1         -6.9274   41.4530   21.5993 H         1 MA2         0.0740
     27 H2         -8.9544   40.1827   21.8546 H         1 MA2         0.0654
     28 H3         -9.7464   41.1515   19.0588 H         1 MA2         0.0632
     29 H4        -10.8815   41.8539   21.8012 H         1 MA2         0.0464
     30 H5         -9.3159   43.4964   19.7675 H         1 MA2         0.0631
     31 H6        -10.9629   44.9138   20.8941 H         1 MA2         0.0583
     32 H7         -9.3048   45.2680   21.4872 H         1 MA2         0.0583
     33 H8        -12.5801   43.1157   17.6036 H         1 MA2         0.0341
     34 H9        -11.3442   41.8328   17.8346 H         1 MA2         0.0341
     35 H10       -10.9134   43.5550   18.1094 H         1 MA2         0.0341
     36 H11        -8.6266   38.7162   20.1023 H         1 MA2         0.2100
     37 H12       -10.4935   39.0593   19.7126 H         1 MA2         0.2099
     38 H13        -9.8006   43.9271   23.3041 H         1 MA2         0.2095
     39 H14        -1.4796   43.0971   19.0915 H         1 MA2         0.0937
     40 H15        -2.7246   40.9946   19.3181 H         1 MA2         0.0670
     41 H16        -4.8295   42.2140   17.4732 H         1 MA2         0.0633
     42 H17        -5.0213   41.5017   20.4445 H         1 MA2         0.0465
     43 H18        -4.9461   44.1929   19.0107 H         1 MA2         0.0632
     44 H19        -6.3737   44.2335   21.0385 H         1 MA2         0.0583
     45 H20        -4.8919   45.2366   21.1951 H         1 MA2         0.0583
     46 H21        -2.8053   46.0054   17.2212 H         1 MA2         0.0525
     47 H22        -1.4842   45.5029   18.3297 H         1 MA2         0.0525
     48 H23        -3.1514   45.7235   18.9611 H         1 MA2         0.0525
     49 H24        -2.6490   40.3586   17.1152 H         1 MA2         0.2101
     50 H25        -4.4940   39.9238   17.3511 H         1 MA2         0.2099
     51 H26        -3.9715   43.4751   22.3689 H         1 MA2         0.2095
@<TRIPOS>BOND
     1    1    2 1  
     2    1   11 1  
     3   23    1 1  
     4    2    3 1  
     5    2    8 1  
     6    3    4 1  
     7    3    9 1  
     8    5    4 1  
     9    4   10 1  
    10    5    6 1  
    11   11    5 1  
    12    6   12 1  
    13   10    7 1  
    14   14   13 1  
    15   13   20 1  
    16   13   24 1  
    17   15   14 1  
    18   14   21 1  
    19   16   15 1  
    20   15   22 1  
    21   16   17 1  
    22   16   23 1  
    23   17   18 1  
    24   17   24 1  
    25   18   25 1  
    26   20   19 1  
    27    1   26 1  
    28    2   27 1  
    29    3   28 1  
    30    4   29 1  
    31    5   30 1  
    32    6   31 1  
    33    6   32 1  
    34    7   33 1  
    35    7   34 1  
    36    7   35 1  
    37    8   36 1  
    38    9   37 1  
    39   12   38 1  
    40   13   39 1  
    41   14   40 1  
    42   15   41 1  
    43   16   42 1  
    44   17   43 1  
    45   18   44 1  
    46   18   45 1  
    47   19   46 1  
    48   19   47 1  
    49   19   48 1  
    50   21   49 1  
    51   22   50 1  
    52   25   51 1  
@<TRIPOS>SUBSTRUCTURE
     1 MA2         1

