### 
### Created by X-TOOL on Mon Sep 10 21:12:49 2018
### 

@<TRIPOS>MOLECULE
1jg0_ligand
   77    81     1     0     0
SMALL
GAST_HUCK


@<TRIPOS>ATOM
      1 C1         13.9830   41.8330   29.3520 C.ar      1 DDT         0.0537
      2 C2         15.2560   41.3150   29.6180 C.ar      1 DDT        -0.0457
      3 C3         15.7020   41.0970   30.9530 C.ar      1 DDT        -0.0783
      4 C4         14.8590   41.3660   32.0220 C.ar      1 DDT        -0.0696
      5 C4A        13.5370   41.8970   31.8090 C.ar      1 DDT        -0.0026
      6 C5         12.6520   42.2210   32.9210 C.ar      1 DDT         0.1103
      7 C6         11.4210   42.8180   32.6860 C.ar      1 DDT        -0.0380
      8 C7         10.9990   43.1270   31.3620 C.ar      1 DDT        -0.0621
      9 C8         11.8240   42.8190   30.2930 C.ar      1 DDT        -0.0544
     10 C8A        13.1040   42.1850   30.4630 C.ar      1 DDT         0.0095
     11 C9         12.3400   41.3470   27.5670 C.3       1 DDT         0.0171
     12 C10        14.5990   42.0310   26.8960 C.3       1 DDT         0.0171
     13 N1         13.5710   42.0360   27.9850 N.pl3     1 DDT        -0.3105
     14 C11        12.4110   39.0360   34.4540 C.3       1 DDT         0.0978
     15 C12        11.8110   38.8200   35.8260 C.2       1 DDT         0.0581
     16 C13        12.9860   37.6870   33.9070 C.3       1 DDT         0.0073
     17 C14        13.4480   37.8350   32.4740 C.ar      1 DDT        -0.0503
     18 C15        12.4970   38.2230   31.4990 C.ar      1 DDT        -0.0685
     19 C16        12.8660   38.3630   30.1530 C.ar      1 DDT        -0.0371
     20 C17        14.2070   38.1020   29.7920 C.ar      1 DDT         0.1162
     21 C18        15.1770   37.7430   30.7560 C.ar      1 DDT        -0.0371
     22 C19        14.7910   37.6050   32.1040 C.ar      1 DDT        -0.0685
     23 S          13.0250   41.8010   34.6140 S.o2      1 DDT         0.0690
     24 O1         11.7650   42.0190   35.3520 O.2       1 DDT        -0.1506
     25 O2         14.2220   42.5620   35.0670 O.2       1 DDT        -0.1506
     26 N          13.4440   40.1390   34.5380 N.am      1 DDT        -0.2300
     27 OC1        12.5550   38.2550   36.6640 O.co2     1 DDT        -0.5669
     28 OC2        10.6790   39.3120   36.0330 O.co2     1 DDT        -0.5669
     29 O          14.6470   38.3550   28.4840 O.3       1 DDT        -0.1709
     30 S          14.2990   37.4700   27.1650 S.o2      1 DDT         0.1280
     31 O1         14.2870   38.2930   25.9810 O.2       1 DDT        -0.1385
     32 O2         13.0950   36.6140   27.3590 O.2       1 DDT        -0.1385
     33 C1         19.4390   36.7070   26.5210 C.ar      1 DDT         0.0538
     34 C2         19.5460   38.0970   26.3910 C.ar      1 DDT        -0.0457
     35 C3         18.4210   38.9440   26.4750 C.ar      1 DDT        -0.0783
     36 C4         17.1830   38.3920   26.7250 C.ar      1 DDT        -0.0696
     37 C4A        17.0280   36.9720   26.8920 C.ar      1 DDT        -0.0016
     38 C5         15.7260   36.4010   27.1220 C.ar      1 DDT         0.1231
     39 C6         15.5680   35.0360   27.1630 C.ar      1 DDT        -0.0370
     40 C7         16.6820   34.1710   26.9670 C.ar      1 DDT        -0.0620
     41 C8         17.9410   34.6830   26.7490 C.ar      1 DDT        -0.0544
     42 C8A        18.1540   36.1010   26.7380 C.ar      1 DDT         0.0095
     43 C9         21.7970   36.4240   25.6360 C.3       1 DDT         0.0171
     44 C10        20.9820   34.7810   27.3410 C.3       1 DDT         0.0171
     45 N1         20.6620   35.9490   26.4710 N.pl3     1 DDT        -0.3105
     46 H1         15.9153   41.0751   28.7917 H         1 DDT         0.0463
     47 H2         16.7021   40.7202   31.1344 H         1 DDT         0.0573
     48 H3         15.2005   41.1736   33.0327 H         1 DDT         0.0468
     49 H4         10.7721   43.0521   33.5222 H         1 DDT         0.0632
     50 H5         10.0387   43.6001   31.1917 H         1 DDT         0.0586
     51 H6         11.4927   43.0649   29.2906 H         1 DDT         0.0631
     52 H7         12.1309   41.5777   26.5120 H         1 DDT         0.0483
     53 H8         11.4998   41.6871   28.1901 H         1 DDT         0.0483
     54 H9         12.4690   40.2611   27.6863 H         1 DDT         0.0483
     55 H10        15.5030   42.5530   27.2428 H         1 DDT         0.0483
     56 H11        14.1968   42.5436   26.0097 H         1 DDT         0.0483
     57 H12        14.8523   40.9927   26.6356 H         1 DDT         0.0483
     58 H13        11.6161   39.3659   33.7689 H         1 DDT         0.0701
     59 H14        12.2023   36.9166   33.9543 H         1 DDT         0.0442
     60 H15        13.8393   37.3809   34.5300 H         1 DDT         0.0442
     61 H16        11.4722   38.4140   31.7963 H         1 DDT         0.0530
     62 H17        12.1394   38.6644   29.4071 H         1 DDT         0.0526
     63 H18        16.2066   37.5757   30.4611 H         1 DDT         0.0526
     64 H19        15.5218   37.3235   32.8536 H         1 DDT         0.0530
     65 H20        14.4120   39.8884   34.5497 H         1 DDT         0.1699
     66 H21        20.5226   38.5355   26.2207 H         1 DDT         0.0463
     67 H22        18.5287   40.0147   26.3447 H         1 DDT         0.0573
     68 H23        16.3146   39.0368   26.7967 H         1 DDT         0.0468
     69 H24        14.5863   34.6143   27.3462 H         1 DDT         0.0633
     70 H25        16.5369   33.0970   26.9897 H         1 DDT         0.0586
     71 H26        18.7756   34.0110   26.5848 H         1 DDT         0.0631
     72 H27        22.6372   35.7196   25.7245 H         1 DDT         0.0483
     73 H28        22.1148   37.4190   25.9810 H         1 DDT         0.0483
     74 H29        21.4787   36.4847   24.5848 H         1 DDT         0.0483
     75 H30        20.0898   34.4994   27.9195 H         1 DDT         0.0483
     76 H31        21.7962   35.0493   28.0303 H         1 DDT         0.0483
     77 H32        21.2960   33.9327   26.7151 H         1 DDT         0.0483
@<TRIPOS>BOND
     1    1    2 ar 
     2   10    1 ar 
     3    1   13 1  
     4    3    2 ar 
     5    4    3 ar 
     6    5    4 ar 
     7    6    5 ar 
     8    5   10 ar 
     9    6    7 ar 
    10   23    6 1  
    11    7    8 ar 
    12    8    9 ar 
    13   10    9 ar 
    14   13   11 1  
    15   13   12 1  
    16   14   15 1  
    17   16   14 1  
    18   14   26 1  
    19   15   27 ar 
    20   15   28 ar 
    21   17   16 1  
    22   18   17 ar 
    23   22   17 ar 
    24   19   18 ar 
    25   20   19 ar 
    26   20   21 ar 
    27   29   20 1  
    28   21   22 ar 
    29   23   24 2  
    30   23   25 2  
    31   26   23 am 
    32   30   29 1  
    33   30   31 2  
    34   30   32 2  
    35   38   30 1  
    36   34   33 ar 
    37   33   42 ar 
    38   33   45 1  
    39   35   34 ar 
    40   36   35 ar 
    41   37   36 ar 
    42   37   38 ar 
    43   37   42 ar 
    44   38   39 ar 
    45   39   40 ar 
    46   40   41 ar 
    47   41   42 ar 
    48   45   43 1  
    49   45   44 1  
    50    2   46 1  
    51    3   47 1  
    52    4   48 1  
    53    7   49 1  
    54    8   50 1  
    55    9   51 1  
    56   11   52 1  
    57   11   53 1  
    58   11   54 1  
    59   12   55 1  
    60   12   56 1  
    61   12   57 1  
    62   14   58 1  
    63   16   59 1  
    64   16   60 1  
    65   18   61 1  
    66   19   62 1  
    67   21   63 1  
    68   22   64 1  
    69   26   65 1  
    70   34   66 1  
    71   35   67 1  
    72   36   68 1  
    73   39   69 1  
    74   40   70 1  
    75   41   71 1  
    76   43   72 1  
    77   43   73 1  
    78   43   74 1  
    79   44   75 1  
    80   44   76 1  
    81   44   77 1  
@<TRIPOS>SUBSTRUCTURE
     1 DDT         1

