### 
### Created by X-TOOL on Mon Sep 10 21:12:48 2018
### 

@<TRIPOS>MOLECULE
1jgl_ligand
   44    47     1     0     0
SMALL
GAST_HUCK


@<TRIPOS>ATOM
      1 C1         43.1480   25.8150   67.9760 C.ar      1 EST        -0.0749
      2 C2         44.5470   25.7240   68.2820 C.ar      1 EST        -0.0468
      3 C3         45.3400   24.6720   67.7000 C.ar      1 EST         0.0739
      4 O3         46.6790   24.5930   68.0030 O.3       1 EST        -0.3393
      5 C4         44.7490   23.7110   66.8090 C.ar      1 EST        -0.0385
      6 C5         43.3380   23.7840   66.4790 C.ar      1 EST        -0.0491
      7 C6         42.7360   22.7450   65.5040 C.3       1 EST        -0.0236
      8 C7         41.2140   22.9120   65.1790 C.3       1 EST        -0.0396
      9 C8         40.7130   24.3810   65.2470 C.3       1 EST        -0.0259
     10 C9         40.9720   24.9410   66.7220 C.3       1 EST        -0.0116
     11 C10        42.5000   24.8610   67.0770 C.ar      1 EST        -0.0484
     12 C11        40.4190   26.4050   66.7950 C.3       1 EST        -0.0421
     13 C12        38.9070   26.5280   66.4270 C.3       1 EST        -0.0433
     14 C13        38.6580   26.0230   64.9750 C.3       1 EST        -0.0028
     15 C14        39.1610   24.5000   64.9040 C.3       1 EST        -0.0285
     16 C15        38.6040   24.0730   63.5350 C.3       1 EST        -0.0469
     17 C16        37.1110   24.5910   63.6240 C.3       1 EST        -0.0261
     18 C17        37.1590   25.8400   64.5770 C.3       1 EST         0.0609
     19 O17        36.5330   26.9730   63.9170 O.3       1 EST        -0.3912
     20 C18        39.3540   27.0060   63.9250 C.3       1 EST        -0.0569
     21 H1         42.5586   26.6084   68.4211 H         1 EST         0.0511
     22 H2         45.0056   26.4449   68.9492 H         1 EST         0.0468
     23 H3         46.7842   24.4776   68.9400 H         1 EST         0.2457
     24 H4         45.3619   22.9262   66.3806 H         1 EST         0.0462
     25 H5         42.8787   21.7473   65.9448 H         1 EST         0.0410
     26 H6         43.2917   22.8104   64.5569 H         1 EST         0.0410
     27 H7         40.6380   22.3159   65.9021 H         1 EST         0.0290
     28 H8         41.0330   22.5311   64.1631 H         1 EST         0.0290
     29 H9         41.2811   24.9835   64.5230 H         1 EST         0.0326
     30 H10        40.4191   24.3208   67.4428 H         1 EST         0.0429
     31 H11        40.9972   27.0290   66.0977 H         1 EST         0.0286
     32 H12        40.5573   26.7769   67.8209 H         1 EST         0.0286
     33 H13        38.6005   27.5818   66.5016 H         1 EST         0.0273
     34 H14        38.3131   25.9229   67.1278 H         1 EST         0.0273
     35 H15        38.6437   23.9047   65.6708 H         1 EST         0.0311
     36 H16        38.6432   22.9810   63.4084 H         1 EST         0.0269
     37 H17        39.1486   24.5574   62.7111 H         1 EST         0.0269
     38 H18        36.4576   23.8118   64.0434 H         1 EST         0.0290
     39 H19        36.7440   24.8805   62.6283 H         1 EST         0.0290
     40 H20        36.5842   25.6285   65.4907 H         1 EST         0.0599
     41 H21        36.5615   27.7285   64.4922 H         1 EST         0.2098
     42 H22        40.4114   27.1424   64.1957 H         1 EST         0.0236
     43 H23        38.8431   27.9800   63.9402 H         1 EST         0.0236
     44 H24        39.2868   26.5723   62.9164 H         1 EST         0.0236
@<TRIPOS>BOND
     1    1    2 ar 
     2    1   11 ar 
     3    2    3 ar 
     4    3    4 1  
     5    3    5 ar 
     6    5    6 ar 
     7    6    7 1  
     8    6   11 ar 
     9    7    8 1  
    10    8    9 1  
    11    9   10 1  
    12    9   15 1  
    13   10   11 1  
    14   10   12 1  
    15   12   13 1  
    16   13   14 1  
    17   14   15 1  
    18   14   18 1  
    19   14   20 1  
    20   15   16 1  
    21   16   17 1  
    22   17   18 1  
    23   18   19 1  
    24    1   21 1  
    25    2   22 1  
    26    4   23 1  
    27    5   24 1  
    28    7   25 1  
    29    7   26 1  
    30    8   27 1  
    31    8   28 1  
    32    9   29 1  
    33   10   30 1  
    34   12   31 1  
    35   12   32 1  
    36   13   33 1  
    37   13   34 1  
    38   15   35 1  
    39   16   36 1  
    40   16   37 1  
    41   17   38 1  
    42   17   39 1  
    43   18   40 1  
    44   19   41 1  
    45   20   42 1  
    46   20   43 1  
    47   20   44 1  
@<TRIPOS>SUBSTRUCTURE
     1 EST         1

