### 
### Created by X-TOOL on Mon Sep 10 21:12:48 2018
### 

@<TRIPOS>MOLECULE
1jh1_ligand
   29    30     1     0     0
SMALL
GAST_HUCK


@<TRIPOS>ATOM
      1 S1         27.0330   60.8770   55.6740 S.3       1 JST        -0.0126
      2 CL1        23.7900   65.7540   61.7490 Cl        1 JST        -0.0698
      3 N1         24.1810   61.0610   56.8510 N.2       1 JST        -0.1969
      4 N2         24.4670   60.1020   55.8440 N.pl3     1 JST        -0.1823
      5 N3         25.6460   59.3460   53.9770 N.2       1 JST        -0.3449
      6 C1         25.0980   62.3230   60.0750 C.ar      1 JST        -0.0513
      7 C2         24.7790   63.3310   61.0260 C.ar      1 JST        -0.0467
      8 C3         24.1830   64.5270   60.5870 C.ar      1 JST         0.0410
      9 C4         23.8950   64.7470   59.2200 C.ar      1 JST        -0.0467
     10 C5         24.2250   63.7200   58.2830 C.ar      1 JST        -0.0513
     11 C6         24.8340   62.4790   58.6800 C.ar      1 JST         0.0001
     12 C7         25.1540   61.4520   57.6190 C.2       1 JST         0.0661
     13 C8         26.5540   60.8940   57.4360 C.3       1 JST         0.0681
     14 C9         25.6210   60.0370   55.1100 C.2       1 JST         0.1906
     15 C10        26.1410   59.8650   52.6910 C.3       1 JST         0.0055
     16 C11        26.4580   58.7690   51.7200 C.2       1 JST        -0.0856
     17 C12        26.9230   58.9690   50.4900 C.2       1 JST        -0.1173
     18 H1         23.7444   59.3944   55.6488 H         1 JST         0.2418
     19 H2         25.5576   61.4042   60.4209 H         1 JST         0.0630
     20 H3         24.9928   63.1793   62.0778 H         1 JST         0.0624
     21 H4         23.4352   65.6720   58.8912 H         1 JST         0.0624
     22 H5         24.0082   63.8823   57.2334 H         1 JST         0.0630
     23 H6         27.2654   61.5194   57.9952 H         1 JST         0.0597
     24 H7         26.5842   59.8659   57.8260 H         1 JST         0.0597
     25 H8         27.0540   60.4508   52.8737 H         1 JST         0.0482
     26 H9         25.3701   60.5150   52.2515 H         1 JST         0.0482
     27 H10        26.2972   57.7413   52.0424 H         1 JST         0.0674
     28 H11        27.1301   58.1192   49.8413 H         1 JST         0.0290
     29 H12        27.0966   59.9826   50.1316 H         1 JST         0.0290
@<TRIPOS>BOND
     1    1   13 1  
     2   14    1 1  
     3    8    2 1  
     4    3    4 1  
     5   12    3 2  
     6    4   14 1  
     7   14    5 2  
     8    5   15 1  
     9    6    7 ar 
    10   11    6 ar 
    11    7    8 ar 
    12    9    8 ar 
    13   10    9 ar 
    14   11   10 ar 
    15   11   12 1  
    16   12   13 1  
    17   15   16 1  
    18   16   17 2  
    19    4   18 1  
    20    6   19 1  
    21    7   20 1  
    22    9   21 1  
    23   10   22 1  
    24   13   23 1  
    25   13   24 1  
    26   15   25 1  
    27   15   26 1  
    28   16   27 1  
    29   17   28 1  
    30   17   29 1  
@<TRIPOS>SUBSTRUCTURE
     1 JST         1

