### 
### Created by X-TOOL on Mon Sep 10 21:12:48 2018
### 

@<TRIPOS>MOLECULE
1jii_ligand
   53    55     1     0     0
SMALL
GAST_HUCK


@<TRIPOS>ATOM
      1 C8         -8.2370   11.1440   83.7430 C.ar      1 383        -0.0684
      2 C7         -7.5690   10.0480   84.2730 C.ar      1 383        -0.0398
      3 C12        -8.1630    9.3200   85.3100 C.ar      1 383         0.0805
      4 C11        -9.5020    9.5290   85.6680 C.ar      1 383        -0.0398
      5 C10       -10.1830   10.6230   85.1410 C.ar      1 383        -0.0684
      6 C9         -9.5630   11.4750   84.1800 C.ar      1 383        -0.0460
      7 C14       -10.3000   12.7700   83.6340 C.3       1 383         0.0365
      8 C15       -11.8710   12.7700   83.5970 C.3       1 383         0.0729
      9 C17       -12.5570   14.1710   83.8600 C.2       1 383         0.2282
     10 N19       -11.8740   14.9880   84.5510 N.am      1 383        -0.2612
     11 C20       -11.9830   16.4140   84.5410 C.3       1 383         0.1406
     12 C21       -10.8510   16.9580   83.6990 C.2       1 383         0.0657
     13 O23       -10.0500   15.9500   83.1750 O.co2     1 383        -0.5664
     14 O18       -13.6530   14.4560   83.4130 O.2       1 383        -0.3906
     15 N16       -12.3440   12.2140   82.3220 N.4       1 383         0.2392
     16 O22       -10.6750   18.1840   83.5070 O.co2     1 383        -0.5664
     17 C6        -12.1060   16.8910   85.9650 C.3       1 383         0.0776
     18 N5        -12.6940   15.8360   86.8350 N.4       1 383         0.4216
     19 C4        -13.1140   16.3260   88.1540 C.3       1 383         0.1462
     20 C3        -14.1890   17.3780   87.9840 C.3       1 383         0.1583
     21 C2        -13.3080   18.4880   87.4200 C.3       1 383         0.1539
     22 C1        -13.0650   18.0740   85.9240 C.3       1 383         0.1359
     23 O28       -11.7680   14.7860   87.0380 O.3       1 383        -0.3382
     24 O29       -13.9100   19.7580   87.5770 O.3       1 383        -0.3806
     25 C30       -11.9550   18.3940   88.1520 C.3       1 383         0.0876
     26 O31       -11.9730   17.0540   88.6700 O.3       1 383        -0.3307
     27 O32       -15.2360   17.0240   87.0840 O.3       1 383        -0.3808
     28 O64       -12.5480   19.1360   85.1410 O.3       1 383        -0.3829
     29 O13        -7.4360    8.4320   85.9690 O.3       1 383        -0.3376
     30 H1         -7.7516   11.7559   82.9913 H         1 383         0.0530
     31 H2         -6.5978    9.7595   83.8875 H         1 383         0.0525
     32 H3        -10.0012    8.8471   86.3469 H         1 383         0.0525
     33 H4        -11.1966   10.8297   85.4650 H         1 383         0.0530
     34 H5         -9.9495   12.9352   82.6045 H         1 383         0.0486
     35 H6         -9.9887   13.6139   84.2672 H         1 383         0.0486
     36 H7        -12.2057   12.0982   84.4012 H         1 383         0.1120
     37 H8        -11.1899   14.5943   85.1650 H         1 383         0.1879
     38 H9        -12.9181   16.6935   84.0335 H         1 383         0.0785
     39 H10       -13.3519   12.2179   82.3071 H         1 383         0.2017
     40 H11       -12.0102   11.2680   82.2235 H         1 383         0.2017
     41 H12       -11.9946   12.7747   81.5607 H         1 383         0.2017
     42 H13       -11.1232   17.1938   86.3553 H         1 383         0.0932
     43 H14       -13.5050   15.4676   86.3633 H         1 383         0.2416
     44 H15       -13.4362   15.5072   88.8141 H         1 383         0.1225
     45 H16       -14.6342   17.6558   88.9508 H         1 383         0.0708
     46 H17       -14.0189   17.7550   85.4786 H         1 383         0.0683
     47 H18       -11.0193   15.1147   87.5217 H         1 383         0.2696
     48 H19       -13.3517   20.4219   87.1897 H         1 383         0.2105
     49 H20       -11.8904   19.1331   88.9642 H         1 383         0.0592
     50 H21       -11.1157   18.5397   87.4560 H         1 383         0.0592
     51 H22       -15.7618   16.3323   87.4681 H         1 383         0.2103
     52 H23       -12.4191   18.8364   84.2487 H         1 383         0.2102
     53 H24        -7.3951    8.6759   86.8863 H         1 383         0.2458
@<TRIPOS>BOND
     1    1    2 ar 
     2    1    6 ar 
     3    2    3 ar 
     4    3    4 ar 
     5    3   29 1  
     6    4    5 ar 
     7    5    6 ar 
     8    6    7 1  
     9    7    8 1  
    10    8    9 1  
    11    8   15 1  
    12    9   10 am 
    13    9   14 2  
    14   10   11 1  
    15   11   12 1  
    16   11   17 1  
    17   12   13 ar 
    18   12   16 ar 
    19   17   18 1  
    20   17   22 1  
    21   18   19 1  
    22   18   23 1  
    23   19   20 1  
    24   19   26 1  
    25   20   21 1  
    26   20   27 1  
    27   21   22 1  
    28   21   24 1  
    29   21   25 1  
    30   22   28 1  
    31   25   26 1  
    32    1   30 1  
    33    2   31 1  
    34    4   32 1  
    35    5   33 1  
    36    7   34 1  
    37    7   35 1  
    38    8   36 1  
    39   10   37 1  
    40   11   38 1  
    41   15   39 1  
    42   15   40 1  
    43   15   41 1  
    44   17   42 1  
    45   18   43 1  
    46   19   44 1  
    47   20   45 1  
    48   22   46 1  
    49   23   47 1  
    50   24   48 1  
    51   25   49 1  
    52   25   50 1  
    53   27   51 1  
    54   28   52 1  
    55   29   53 1  
@<TRIPOS>SUBSTRUCTURE
     1 383         1

