### 
### Created by X-TOOL on Mon Sep 10 21:12:48 2018
### 

@<TRIPOS>MOLECULE
1jij_ligand
   55    56     1     0     0
SMALL
GAST_HUCK


@<TRIPOS>ATOM
      1 C7         -7.3100   10.2200   84.9850 C.ar      1 629        -0.0398
      2 C8         -7.9100   11.4070   84.5610 C.ar      1 629        -0.0684
      3 C12        -8.0390    9.3060   85.7500 C.ar      1 629         0.0805
      4 C11        -9.3870    9.5560   86.0550 C.ar      1 629        -0.0398
      5 C10       -10.0020   10.6990   85.5500 C.ar      1 629        -0.0684
      6 C9         -9.2500   11.6660   84.8620 C.ar      1 629        -0.0460
      7 C14        -9.9120   12.9830   84.4560 C.3       1 629         0.0365
      8 C15       -11.4520   12.9360   84.3640 C.3       1 629         0.0729
      9 C17       -12.1310   14.3570   84.2020 C.2       1 629         0.2282
     10 N19       -11.6670   15.2950   85.0310 N.am      1 629        -0.2612
     11 C20       -12.0010   16.7400   85.0510 C.3       1 629         0.1405
     12 C21       -10.9030   17.4980   84.2740 C.2       1 629         0.0657
     13 O23        -9.6920   16.8590   84.2340 O.co2     1 629        -0.5664
     14 O18       -13.0200   14.5560   83.3780 O.2       1 629        -0.3906
     15 N16       -11.8180   11.9730   83.3030 N.4       1 629         0.2392
     16 O22       -11.1040   18.5840   83.7370 O.co2     1 629        -0.5664
     17 C6        -12.2700   17.2620   86.4440 C.3       1 629         0.0743
     18 N5        -12.4390   16.0820   87.4390 N.4       1 629         0.4032
     19 C4        -13.0720   16.3050   88.8170 C.3       1 629         0.0287
     20 C3        -14.3010   17.1760   88.6640 C.3       1 629         0.1291
     21 C2        -13.8100   18.4680   88.0650 C.3       1 629         0.1506
     22 C1        -13.5480   18.1200   86.5420 C.3       1 629         0.1357
     23 O28       -11.4140   15.2130   87.4920 O.3       1 629        -0.3417
     24 O32       -15.2360   16.5570   87.7860 O.3       1 629        -0.3835
     25 O29       -14.8410   19.4710   88.2010 O.3       1 629        -0.3807
     26 C30       -12.5480   19.0000   88.8560 C.3       1 629         0.0783
     27 O31       -11.3120   18.4170   88.4120 O.3       1 629        -0.3920
     28 O64       -13.4260   19.3390   85.7830 O.3       1 629        -0.3829
     29 O13        -7.4420    8.1630   86.1870 O.3       1 629        -0.3376
     30 H1         -6.2802   10.0078   84.7212 H         1 629         0.0525
     31 H2         -7.3341   12.1309   83.9959 H         1 629         0.0530
     32 H3         -9.9438    8.8654   86.6780 H         1 629         0.0525
     33 H4        -11.0674   10.8434   85.6886 H         1 629         0.0530
     34 H5         -9.5197   13.2728   83.4700 H         1 629         0.0486
     35 H6         -9.6374   13.7465   85.1987 H         1 629         0.0486
     36 H7        -11.8226   12.5282   85.3160 H         1 629         0.1120
     37 H8        -11.0147   14.9856   85.7229 H         1 629         0.1879
     38 H9        -12.9388   16.8688   84.4908 H         1 629         0.0785
     39 H10       -12.8218   11.9252   83.2243 H         1 629         0.2017
     40 H11       -11.4556   11.0619   83.5366 H         1 629         0.2017
     41 H12       -11.4262   12.2755   82.4249 H         1 629         0.2017
     42 H13       -11.4096   17.8754   86.7497 H         1 629         0.0931
     43 H14       -13.1547   15.5454   86.9744 H         1 629         0.2379
     44 H15       -12.3479   16.8031   89.4785 H         1 629         0.0851
     45 H16       -13.3593   15.3361   89.2513 H         1 629         0.0851
     46 H17       -14.7722   17.3559   89.6415 H         1 629         0.0678
     47 H18       -14.3973   17.5419   86.1490 H         1 629         0.0683
     48 H19       -10.7448   15.5496   88.0762 H         1 629         0.2695
     49 H20       -15.9740   17.1394   87.6495 H         1 629         0.2102
     50 H21       -14.5723   20.2629   87.7502 H         1 629         0.2105
     51 H22       -12.6807   18.7668   89.9228 H         1 629         0.0587
     52 H23       -12.4871   20.0903   88.7238 H         1 629         0.0587
     53 H24       -11.3475   17.4749   88.5289 H         1 629         0.2095
     54 H25       -12.6995   19.8496   86.1207 H         1 629         0.2102
     55 H26        -7.9014    7.4112   85.8315 H         1 629         0.2458
@<TRIPOS>BOND
     1    1    2 ar 
     2    1    3 ar 
     3    2    6 ar 
     4    3    4 ar 
     5    3   29 1  
     6    4    5 ar 
     7    5    6 ar 
     8    6    7 1  
     9    7    8 1  
    10    8    9 1  
    11    8   15 1  
    12    9   10 am 
    13    9   14 2  
    14   10   11 1  
    15   11   12 1  
    16   11   17 1  
    17   12   13 ar 
    18   12   16 ar 
    19   17   18 1  
    20   17   22 1  
    21   18   19 1  
    22   18   23 1  
    23   19   20 1  
    24   20   21 1  
    25   20   24 1  
    26   21   22 1  
    27   21   25 1  
    28   21   26 1  
    29   22   28 1  
    30   26   27 1  
    31    1   30 1  
    32    2   31 1  
    33    4   32 1  
    34    5   33 1  
    35    7   34 1  
    36    7   35 1  
    37    8   36 1  
    38   10   37 1  
    39   11   38 1  
    40   15   39 1  
    41   15   40 1  
    42   15   41 1  
    43   17   42 1  
    44   18   43 1  
    45   19   44 1  
    46   19   45 1  
    47   20   46 1  
    48   22   47 1  
    49   23   48 1  
    50   24   49 1  
    51   25   50 1  
    52   26   51 1  
    53   26   52 1  
    54   27   53 1  
    55   28   54 1  
    56   29   55 1  
@<TRIPOS>SUBSTRUCTURE
     1 629         1

