### 
### Created by X-TOOL on Mon Sep 10 21:12:48 2018
### 

@<TRIPOS>MOLECULE
1jik_ligand
   68    69     1     0     0
SMALL
GAST_HUCK


@<TRIPOS>ATOM
      1 C8         28.6480    8.0510   82.2370 C.ar      1 545        -0.0684
      2 C7         27.3720    7.5900   82.5420 C.ar      1 545        -0.0398
      3 C12        26.7350    8.0810   83.6600 C.ar      1 545         0.0805
      4 C11        27.2470    9.1890   84.3360 C.ar      1 545        -0.0398
      5 C10        28.4250    9.7960   83.8880 C.ar      1 545        -0.0684
      6 C9         29.1360    9.2300   82.8380 C.ar      1 545        -0.0460
      7 C14        30.4440    9.8760   82.3550 C.3       1 545         0.0365
      8 C15        30.5200   11.4120   82.2250 C.3       1 545         0.0730
      9 C17        31.9920   11.8960   82.0800 C.2       1 545         0.2288
     10 N19        32.8000   11.5510   83.0610 N.am      1 545        -0.2548
     11 C20        34.1700   12.1250   83.2640 C.3       1 545         0.1888
     12 C21        35.1970   11.4330   82.3150 C.2       1 545         0.2654
     13 O23        34.9510   10.0780   82.1100 O.3       1 545        -0.2749
     14 C24        35.8580    9.3140   81.3090 C.3       1 545         0.0768
     15 C25        37.3490    9.7350   81.5760 C.3       1 545        -0.0252
     16 C26        38.3720    8.6160   81.2390 C.3       1 545        -0.0535
     17 C27        39.1660    8.1520   82.4920 C.3       1 545        -0.0652
     18 O18        32.3720   12.5200   81.1050 O.2       1 545        -0.3905
     19 N16        29.6360   11.8760   81.1150 N.4       1 545         0.2392
     20 O22        36.1330   12.0620   81.8280 O.2       1 545        -0.3676
     21 C6         34.6420   12.2770   84.7310 C.3       1 545         0.0812
     22 N5         33.4670   12.7200   85.6200 N.4       1 545         0.4037
     23 C4         33.7660   13.3850   86.9440 C.3       1 545         0.0288
     24 C3         34.8900   14.4120   86.7870 C.3       1 545         0.1291
     25 C2         36.1290   13.7140   86.2410 C.3       1 545         0.1506
     26 C1         35.8240   13.2950   84.7890 C.3       1 545         0.1364
     27 O28        32.4910   11.7960   85.7130 O.3       1 545        -0.3417
     28 O32        34.5180   15.4250   85.8330 O.3       1 545        -0.3835
     29 O29        37.1270   14.7170   86.2250 O.3       1 545        -0.3807
     30 C30        36.6950   12.5440   87.1440 C.3       1 545         0.0783
     31 O31        36.7400   11.2750   86.4370 O.3       1 545        -0.3920
     32 O64        36.9660   12.7130   84.2000 O.3       1 545        -0.3829
     33 O13        25.6380    7.4810   84.1120 O.3       1 545        -0.3376
     34 H1         29.2683    7.5036   81.5366 H         1 545         0.0530
     35 H2         26.8863    6.8556   81.9097 H         1 545         0.0525
     36 H3         26.7327    9.5788   85.2070 H         1 545         0.0525
     37 H4         28.7816   10.7050   84.3588 H         1 545         0.0530
     38 H5         30.6615    9.4579   81.3611 H         1 545         0.0486
     39 H6         31.2319    9.5735   83.0605 H         1 545         0.0486
     40 H7         30.1287   11.8455   83.1572 H         1 545         0.1120
     41 H8         32.4795   10.8626   83.7117 H         1 545         0.1888
     42 H9         34.0969   13.1606   82.9005 H         1 545         0.0876
     43 H10        35.6239    9.4784   80.2468 H         1 545         0.0613
     44 H11        35.7381    8.2475   81.5501 H         1 545         0.0613
     45 H12        37.4535    9.9950   82.6397 H         1 545         0.0291
     46 H13        37.5791   10.6160   80.9589 H         1 545         0.0291
     47 H14        39.0820    8.9983   80.4909 H         1 545         0.0263
     48 H15        37.8302    7.7537   80.8233 H         1 545         0.0263
     49 H16        39.8753    7.3618   82.2047 H         1 545         0.0230
     50 H17        38.4664    7.7606   83.2452 H         1 545         0.0230
     51 H18        39.7183    9.0051   82.9128 H         1 545         0.0230
     52 H19        29.6922   12.8795   81.0378 H         1 545         0.2017
     53 H20        28.6841   11.6067   81.3086 H         1 545         0.2017
     54 H21        29.9348   11.4552   80.2492 H         1 545         0.2017
     55 H22        35.0019   11.3022   85.0917 H         1 545         0.0939
     56 H23        33.0487   13.4637   85.0833 H         1 545         0.2379
     57 H24        34.0740   12.6199   87.6719 H         1 545         0.0851
     58 H25        32.8601   13.8927   87.3068 H         1 545         0.0851
     59 H26        35.1089   14.8735   87.7612 H         1 545         0.0678
     60 H27        35.5456   14.1925   84.2173 H         1 545         0.0684
     61 H28        32.7538   11.1201   86.3267 H         1 545         0.2695
     62 H29        35.2334   16.0420   85.7328 H         1 545         0.2102
     63 H30        36.8136   15.4661   85.7319 H         1 545         0.2105
     64 H31        36.0486   12.4342   88.0272 H         1 545         0.0587
     65 H32        37.7137   12.8062   87.4655 H         1 545         0.0587
     66 H33        37.3017   11.3579   85.6753 H         1 545         0.2095
     67 H34        36.7657   12.4593   83.3066 H         1 545         0.2102
     68 H35        25.4217    6.7501   83.5450 H         1 545         0.2458
@<TRIPOS>BOND
     1    1    2 ar 
     2    1    6 ar 
     3    2    3 ar 
     4    3    4 ar 
     5    3   33 1  
     6    4    5 ar 
     7    5    6 ar 
     8    6    7 1  
     9    7    8 1  
    10    8    9 1  
    11    8   19 1  
    12    9   10 am 
    13    9   18 2  
    14   10   11 1  
    15   11   12 1  
    16   11   21 1  
    17   12   13 1  
    18   12   20 2  
    19   13   14 1  
    20   14   15 1  
    21   15   16 1  
    22   16   17 1  
    23   21   22 1  
    24   21   26 1  
    25   22   23 1  
    26   22   27 1  
    27   23   24 1  
    28   24   25 1  
    29   24   28 1  
    30   25   26 1  
    31   25   29 1  
    32   25   30 1  
    33   26   32 1  
    34   30   31 1  
    35    1   34 1  
    36    2   35 1  
    37    4   36 1  
    38    5   37 1  
    39    7   38 1  
    40    7   39 1  
    41    8   40 1  
    42   10   41 1  
    43   11   42 1  
    44   14   43 1  
    45   14   44 1  
    46   15   45 1  
    47   15   46 1  
    48   16   47 1  
    49   16   48 1  
    50   17   49 1  
    51   17   50 1  
    52   17   51 1  
    53   19   52 1  
    54   19   53 1  
    55   19   54 1  
    56   21   55 1  
    57   22   56 1  
    58   23   57 1  
    59   23   58 1  
    60   24   59 1  
    61   26   60 1  
    62   27   61 1  
    63   28   62 1  
    64   29   63 1  
    65   30   64 1  
    66   30   65 1  
    67   31   66 1  
    68   32   67 1  
    69   33   68 1  
@<TRIPOS>SUBSTRUCTURE
     1 545         1

