### 
### Created by X-TOOL on Mon Sep 10 21:12:48 2018
### 

@<TRIPOS>MOLECULE
1jil_ligand
   51    52     1     0     0
SMALL
GAST_HUCK


@<TRIPOS>ATOM
      1 O1         25.3940    7.2340   83.6780 O.3       1 485        -0.3376
      2 C2         26.5770    7.7550   83.3260 C.ar      1 485         0.0805
      3 C3         27.2530    8.6040   84.2080 C.ar      1 485        -0.0398
      4 C4         28.5160    9.1540   83.8180 C.ar      1 485        -0.0684
      5 C5         29.0530    8.8310   82.5570 C.ar      1 485        -0.0460
      6 C6         28.3420    7.9560   81.6770 C.ar      1 485        -0.0684
      7 C7         27.1200    7.4330   82.0720 C.ar      1 485        -0.0398
      8 C8         30.3740    9.4080   82.1210 C.3       1 485         0.0365
      9 C9         30.3560   10.9040   81.8700 C.3       1 485         0.0729
     10 N10        29.2130   11.3250   80.9800 N.4       1 485         0.2392
     11 C11        31.7220   11.3520   81.3210 C.2       1 485         0.2281
     12 O12        31.8770   11.5220   80.1490 O.2       1 485        -0.3906
     13 N13        32.7040   11.5320   82.2170 N.am      1 485        -0.2640
     14 C14        34.1280   11.9840   81.9310 C.3       1 485         0.1230
     15 C15        35.0240   10.8290   81.3040 C.2       1 485         0.0627
     16 O16        34.4000    9.5790   81.3100 O.co2     1 485        -0.5665
     17 O17        36.1870   11.0400   80.8280 O.co2     1 485        -0.5665
     18 C18        34.7180   12.5970   83.1920 C.3       1 485         0.1218
     19 C19        34.0090   13.8940   83.5760 C.3       1 485         0.1133
     20 C20        34.6110   14.4620   84.8880 C.3       1 485         0.1118
     21 C21        34.5260   13.4490   86.0500 C.3       1 485         0.1093
     22 C22        35.2370   12.0900   85.6240 C.3       1 485         0.0849
     23 O23        34.5810   11.6560   84.3650 O.3       1 485        -0.3643
     24 O24        34.1700   14.8400   82.5490 O.3       1 485        -0.3864
     25 O25        33.8810   15.6110   85.2070 O.3       1 485        -0.3865
     26 O26        33.1260   13.2250   86.2990 O.3       1 485        -0.3866
     27 C27        35.1070   10.9150   86.6270 C.3       1 485        -0.0361
     28 H1         25.1598    7.5409   84.5460 H         1 485         0.2458
     29 H2         26.8259    8.8428   85.1753 H         1 485         0.0525
     30 H3         29.0547    9.8140   84.4883 H         1 485         0.0530
     31 H4         28.7557    7.7033   80.7075 H         1 485         0.0530
     32 H5         26.5792    6.7697   81.4067 H         1 485         0.0525
     33 H6         30.6768    8.9072   81.1896 H         1 485         0.0486
     34 H7         31.1154    9.2006   82.9067 H         1 485         0.0486
     35 H8         30.2086   11.4015   82.8399 H         1 485         0.1120
     36 H9         29.2437   12.3232   80.8433 H         1 485         0.2017
     37 H10        28.3388   11.0720   81.4134 H         1 485         0.2017
     38 H11        29.2927   10.8612   80.0886 H         1 485         0.2017
     39 H12        32.4759   11.3499   83.1735 H         1 485         0.1878
     40 H13        34.0741   12.7821   81.1760 H         1 485         0.0753
     41 H14        35.7831   12.8053   83.0128 H         1 485         0.0665
     42 H15        32.9378   13.6921   83.7238 H         1 485         0.0648
     43 H16        35.6663   14.7242   84.7221 H         1 485         0.0647
     44 H17        35.0123   13.8550   86.9493 H         1 485         0.0646
     45 H18        36.3054   12.2891   85.4539 H         1 485         0.0620
     46 H19        33.7282   15.6458   82.7901 H         1 485         0.2100
     47 H20        33.9593   16.2410   84.5002 H         1 485         0.2100
     48 H21        32.7178   12.8768   85.5150 H         1 485         0.2100
     49 H22        35.6333   10.0343   86.2302 H         1 485         0.0255
     50 H23        34.0439   10.6724   86.7718 H         1 485         0.0255
     51 H24        35.5516   11.2045   87.5906 H         1 485         0.0255
@<TRIPOS>BOND
     1    1    2 1  
     2    2    7 ar 
     3    2    3 ar 
     4    3    4 ar 
     5    4    5 ar 
     6    5    8 1  
     7    5    6 ar 
     8    6    7 ar 
     9    8    9 1  
    10    9   11 1  
    11    9   10 1  
    12   11   13 am 
    13   11   12 2  
    14   13   14 1  
    15   14   18 1  
    16   14   15 1  
    17   15   17 ar 
    18   15   16 ar 
    19   18   23 1  
    20   18   19 1  
    21   19   24 1  
    22   19   20 1  
    23   20   25 1  
    24   20   21 1  
    25   21   26 1  
    26   21   22 1  
    27   22   27 1  
    28   22   23 1  
    29    1   28 1  
    30    3   29 1  
    31    4   30 1  
    32    6   31 1  
    33    7   32 1  
    34    8   33 1  
    35    8   34 1  
    36    9   35 1  
    37   10   36 1  
    38   10   37 1  
    39   10   38 1  
    40   13   39 1  
    41   14   40 1  
    42   18   41 1  
    43   19   42 1  
    44   20   43 1  
    45   21   44 1  
    46   22   45 1  
    47   24   46 1  
    48   25   47 1  
    49   26   48 1  
    50   27   49 1  
    51   27   50 1  
    52   27   51 1  
@<TRIPOS>SUBSTRUCTURE
     1 485         1

