### 
### Created by X-TOOL on Mon Sep 10 21:12:49 2018
### 

@<TRIPOS>MOLECULE
1jiz_ligand
   48    49     1     0     0
SMALL
GAST_HUCK


@<TRIPOS>ATOM
      1 N1          1.1390    3.5750   70.5240 N.am      1 CGS        -0.1998
      2 CC          2.2500    2.9170   71.2670 C.3       1 CGS         0.0722
      3 CA          1.2060    3.6250   69.0140 C.3       1 CGS         0.1479
      4 S4          0.0620    4.5770   71.3470 S.o2      1 CGS         0.0697
      5 C5          2.0110    1.5020   71.7820 C.ar      1 CGS         0.0038
      6 CD          1.9210    1.1940   73.1620 C.ar      1 CGS        -0.0389
      7 CE          1.6990   -0.1390   73.5450 C.ar      1 CGS        -0.0404
      8 CZ          1.5730   -1.1230   72.5550 C.ar      1 CGS         0.0042
      9 N11         1.6530   -0.8580   71.2370 N.ar      1 CGS        -0.3044
     10 CY          1.8660    0.4200   70.8800 C.ar      1 CGS         0.0141
     11 C17         0.8620    6.0690   71.7570 C.ar      1 CGS         0.0975
     12 CE2         1.6320    6.1720   72.9650 C.ar      1 CGS        -0.0440
     13 CD2         2.2760    7.3370   73.3350 C.ar      1 CGS        -0.0313
     14 C20         2.2090    8.5000   72.5330 C.ar      1 CGS         0.0908
     15 CD1         1.4560    8.4280   71.3300 C.ar      1 CGS        -0.0313
     16 CE1         0.8050    7.2680   70.9470 C.ar      1 CGS        -0.0440
     17 O27         2.8540    9.6460   72.9220 O.3       1 CGS        -0.3212
     18 COM         3.4760    9.7840   74.1960 C.3       1 CGS         0.0594
     19 O32        -1.0320    4.8810   70.4510 O.2       1 CGS        -0.1512
     20 O33        -0.3160    3.9390   72.5850 O.2       1 CGS        -0.1512
     21 C34         2.4520    4.5110   68.6630 C.2       1 CGS         0.3094
     22 N35         2.1430    5.7570   68.0800 N.2       1 CGS         0.0370
     23 CB          1.2080    2.3550   68.1010 C.3       1 CGS        -0.0084
     24 CG2         1.4000    2.6090   66.5930 C.3       1 CGS        -0.0587
     25 CG1        -0.0870    1.5300   68.2950 C.3       1 CGS        -0.0587
     26 O47         3.6360    4.2210   68.8460 O.2       1 CGS        -0.3261
     27 O48         3.0960    6.5910   67.7420 O.2       1 CGS        -0.1732
     28 H1          2.4847    3.5488   72.1363 H         1 CGS         0.0659
     29 H2          3.1199    2.8804   70.5947 H         1 CGS         0.0659
     30 H3          0.3041    4.1765   68.7101 H         1 CGS         0.0771
     31 H4          2.0217    1.9732   73.9089 H         1 CGS         0.0678
     32 H5          1.6260   -0.4035   74.5937 H         1 CGS         0.0693
     33 H6          1.4028   -2.1476   72.8653 H         1 CGS         0.0767
     34 H7          1.9319    0.6394   69.8205 H         1 CGS         0.0766
     35 H8          1.7107    5.3042   73.6098 H         1 CGS         0.0608
     36 H9          2.8438    7.3601   74.2581 H         1 CGS         0.0542
     37 H10         1.3897    9.3045   70.6956 H         1 CGS         0.0542
     38 H11         0.2408    7.2569   70.0215 H         1 CGS         0.0608
     39 H12         3.9251   10.7848   74.2783 H         1 CGS         0.0577
     40 H13         4.2599    9.0202   74.3060 H         1 CGS         0.0577
     41 H14         2.7234    9.6537   74.9876 H         1 CGS         0.0577
     42 H15         2.0554    1.7364   68.4315 H         1 CGS         0.0339
     43 H16         1.3843    1.6498   66.0547 H         1 CGS         0.0234
     44 H17         2.3659    3.1078   66.4252 H         1 CGS         0.0234
     45 H18         0.5868    3.2506   66.2227 H         1 CGS         0.0234
     46 H19        -0.2421    1.3378   69.3669 H         1 CGS         0.0234
     47 H20         0.0043    0.5730   67.7604 H         1 CGS         0.0234
     48 H21        -0.9436    2.0928   67.8957 H         1 CGS         0.0234
@<TRIPOS>BOND
     1    1    2 1  
     2    1    3 1  
     3    1    4 am 
     4    2    5 1  
     5    3   21 1  
     6    3   23 1  
     7    4   11 1  
     8    4   19 2  
     9    4   20 2  
    10    5    6 ar 
    11    5   10 ar 
    12    6    7 ar 
    13    7    8 ar 
    14    8    9 ar 
    15    9   10 ar 
    16   11   12 ar 
    17   11   16 ar 
    18   12   13 ar 
    19   13   14 ar 
    20   14   15 ar 
    21   14   17 1  
    22   15   16 ar 
    23   17   18 1  
    24   21   22 1  
    25   21   26 2  
    26   22   27 2  
    27   23   24 1  
    28   23   25 1  
    29    2   28 1  
    30    2   29 1  
    31    3   30 1  
    32    6   31 1  
    33    7   32 1  
    34    8   33 1  
    35   10   34 1  
    36   12   35 1  
    37   13   36 1  
    38   15   37 1  
    39   16   38 1  
    40   18   39 1  
    41   18   40 1  
    42   18   41 1  
    43   23   42 1  
    44   24   43 1  
    45   24   44 1  
    46   24   45 1  
    47   25   46 1  
    48   25   47 1  
    49   25   48 1  
@<TRIPOS>SUBSTRUCTURE
     1 CGS         1

