### 
### Created by X-TOOL on Mon Sep 10 21:12:48 2018
### 

@<TRIPOS>MOLECULE
1jj9_ligand
   46    48     1     0     0
SMALL
GAST_HUCK


@<TRIPOS>ATOM
      1 N1         24.3150   27.4830   27.0610 N.am      1 BBT        -0.1830
      2 C2         23.5950   26.3530   26.9590 C.2       1 BBT         0.3177
      3 O2         23.0520   26.1850   25.7910 O.2       1 BBT        -0.3816
      4 N3         23.4720   25.4320   27.9060 N.am      1 BBT        -0.1830
      5 C4         24.0080   25.6210   29.1200 C.2       1 BBT         0.2515
      6 O4         23.8690   24.8070   30.0470 O.2       1 BBT        -0.3503
      7 C5         24.6160   27.0710   29.4160 C.3       1 BBT         0.1566
      8 C6         24.9740   27.8020   28.1750 C.2       1 BBT         0.2515
      9 O6         25.6600   28.8100   28.2810 O.2       1 BBT        -0.3503
     10 NP1        25.6280   27.0340   30.4080 N.4       1 BBT         0.2028
     11 CP2        25.1780   26.9620   31.8130 C.3       1 BBT        -0.0354
     12 CP3        26.1970   27.4360   32.7840 C.3       1 BBT        -0.0093
     13 CP4        27.5310   26.7630   32.4850 C.3       1 BBT        -0.0294
     14 CP5        27.9500   27.0120   31.0300 C.3       1 BBT        -0.0093
     15 CP6        26.9280   26.4510   29.9840 C.3       1 BBT        -0.0354
     16 CP7        28.6030   27.2320   33.4750 C.3       1 BBT        -0.0265
     17 CP8        29.6880   26.1820   33.7180 C.3       1 BBT         0.0445
     18 OP9        30.4180   26.8140   34.7620 O.3       1 BBT        -0.3950
     19 CG         23.3870   27.9430   29.9950 C.ar      1 BBT         0.0181
     20 CD1        22.1090   27.4260   30.1310 C.ar      1 BBT        -0.0338
     21 CD2        23.5610   29.2890   30.3400 C.ar      1 BBT        -0.0338
     22 CE1        21.0090   28.2170   30.6090 C.ar      1 BBT        -0.0320
     23 CE2        22.4990   30.1040   30.8190 C.ar      1 BBT        -0.0320
     24 CZ         21.2050   29.5700   30.9530 C.ar      1 BBT        -0.0335
     25 H1         24.3577   28.1032   26.2777 H         1 BBT         0.2258
     26 H2         22.9737   24.5870   27.7119 H         1 BBT         0.2258
     27 H3         25.8965   28.0055   30.3967 H         1 BBT         0.2000
     28 H4         24.9332   25.9155   32.0475 H         1 BBT         0.0816
     29 H5         24.2766   27.5829   31.9227 H         1 BBT         0.0816
     30 H6         25.8778   27.1808   33.8053 H         1 BBT         0.0320
     31 H7         26.3083   28.5268   32.6964 H         1 BBT         0.0320
     32 H8         27.4026   25.6785   32.6167 H         1 BBT         0.0305
     33 H9         28.9236   26.5291   30.8599 H         1 BBT         0.0320
     34 H10        28.0468   28.0968   30.8757 H         1 BBT         0.0320
     35 H11        27.1902   26.7770   28.9667 H         1 BBT         0.0816
     36 H12        26.8946   25.3521   30.0197 H         1 BBT         0.0816
     37 H13        28.1176   27.4637   34.4345 H         1 BBT         0.0290
     38 H14        29.0770   28.1405   33.0750 H         1 BBT         0.0290
     39 H15        30.3093   26.0234   32.8243 H         1 BBT         0.0557
     40 H16        29.2607   25.2218   34.0427 H         1 BBT         0.0557
     41 H17        31.1437   26.2582   35.0209 H         1 BBT         0.2094
     42 H18        21.9329   26.3893   29.8678 H         1 BBT         0.0848
     43 H19        24.5468   29.7280   30.2376 H         1 BBT         0.0848
     44 H20        20.0252   27.7720   30.7054 H         1 BBT         0.0700
     45 H21        22.6871   31.1388   31.0814 H         1 BBT         0.0700
     46 H22        20.3832   30.1802   31.3100 H         1 BBT         0.0860
@<TRIPOS>BOND
     1    1    8 am 
     2    1    2 am 
     3    2    4 am 
     4    2    3 2  
     5    4    5 am 
     6    5    7 1  
     7    5    6 2  
     8    7   19 1  
     9    7   10 1  
    10    7    8 1  
    11    8    9 2  
    12   10   15 1  
    13   10   11 1  
    14   11   12 1  
    15   12   13 1  
    16   13   16 1  
    17   13   14 1  
    18   14   15 1  
    19   16   17 1  
    20   17   18 1  
    21   19   21 ar 
    22   19   20 ar 
    23   20   22 ar 
    24   22   24 ar 
    25   24   23 ar 
    26   23   21 ar 
    27    1   25 1  
    28    4   26 1  
    29   10   27 1  
    30   11   28 1  
    31   11   29 1  
    32   12   30 1  
    33   12   31 1  
    34   13   32 1  
    35   14   33 1  
    36   14   34 1  
    37   15   35 1  
    38   15   36 1  
    39   16   37 1  
    40   16   38 1  
    41   17   39 1  
    42   17   40 1  
    43   18   41 1  
    44   20   42 1  
    45   21   43 1  
    46   22   44 1  
    47   23   45 1  
    48   24   46 1  
@<TRIPOS>SUBSTRUCTURE
     1 BBT         1

