### 
### Created by X-TOOL on Mon Sep 10 21:12:48 2018
### 

@<TRIPOS>MOLECULE
1jje_ligand
   41    43     1     0     0
SMALL
GAST_HUCK


@<TRIPOS>ATOM
      1 H1         56.3361   25.0168   32.8373 H         1 BYS         0.0511
      2 H2         57.6339   22.9473   32.9256 H         1 BYS         0.0448
      3 H3         59.1748   23.8585   32.7775 H         1 BYS         0.0448
      4 H4         60.0305   24.3824   30.6363 H         1 BYS         0.0557
      5 H5         59.8540   24.3730   28.1655 H         1 BYS         0.0599
      6 H6         57.7404   23.5905   27.0786 H         1 BYS         0.0559
      7 H7         55.7651   23.1015   28.4882 H         1 BYS         0.0599
      8 H8         55.9727   23.0578   30.9594 H         1 BYS         0.0557
      9 C1         57.4160   25.1030   33.0280 C.3       1 BYS         0.0372
     10 C2         57.9150   26.3470   32.3210 C.2       1 BYS         0.0419
     11 O3         57.0850   27.1160   31.7890 O.co2     1 BYS        -0.5684
     12 O4         59.1230   26.6600   32.2440 O.co2     1 BYS        -0.5684
     13 C5         58.1130   23.8370   32.4910 C.3       1 BYS        -0.0028
     14 C6         58.0040   23.7750   30.9750 C.ar      1 BYS        -0.0410
     15 C7         59.0930   24.1020   30.1700 C.ar      1 BYS        -0.0602
     16 C8         59.0050   24.0770   28.7710 C.ar      1 BYS        -0.0686
     17 C9         57.8070   23.6650   28.1580 C.ar      1 BYS        -0.0687
     18 C10        56.7110   23.3550   28.9530 C.ar      1 BYS        -0.0686
     19 C11        56.8170   23.3670   30.3540 C.ar      1 BYS        -0.0602
     20 C12        57.6370   25.1710   34.5470 C.3       1 BYS         0.0358
     21 C13        57.5140   26.5790   35.0580 C.2       1 BYS         0.0417
     22 O14        56.6730   27.3870   34.6000 O.co2     1 BYS        -0.5684
     23 O15        58.2960   26.9840   35.9560 O.co2     1 BYS        -0.5684
     24 C16        56.6260   24.2210   35.2430 C.3       1 BYS        -0.0103
     25 C17        57.0770   24.1100   36.6850 C.ar      1 BYS        -0.0606
     26 C18        56.4830   24.8980   37.7000 C.ar      1 BYS        -0.0396
     27 C19        56.9680   24.6860   38.9890 C.ar      1 BYS         0.1170
     28 O20        56.6450   25.3320   40.1140 O.3       1 BYS        -0.2927
     29 C21        57.4370   24.7990   41.1870 C.3       1 BYS         0.1854
     30 O22        58.2800   23.8030   40.5730 O.3       1 BYS        -0.2956
     31 C23        57.9960   23.7970   39.2640 C.ar      1 BYS         0.1160
     32 C24        58.6040   23.0440   38.2630 C.ar      1 BYS        -0.0478
     33 C25        58.0950   23.2020   36.9550 C.ar      1 BYS        -0.0800
     34 H9         58.6553   24.8182   34.7675 H         1 BYS         0.0508
     35 H10        56.6385   23.2318   34.7621 H         1 BYS         0.0425
     36 H11        55.6105   24.6408   35.1920 H         1 BYS         0.0425
     37 H12        55.7019   25.6192   37.4883 H         1 BYS         0.0450
     38 H13        56.7927   24.3411   41.9520 H         1 BYS         0.0970
     39 H14        58.0468   25.5906   41.6470 H         1 BYS         0.0970
     40 H15        59.4262   22.3707   38.4767 H         1 BYS         0.0493
     41 H16        58.5048   22.6054   36.1480 H         1 BYS         0.0436
@<TRIPOS>BOND
     1    9    1 1  
     2   13    2 1  
     3   13    3 1  
     4   15    4 1  
     5   16    5 1  
     6   17    6 1  
     7    9   20 1  
     8   13    9 1  
     9    9   10 1  
    10   10   12 ar 
    11   10   11 ar 
    12   14   13 1  
    13   14   19 ar 
    14   15   14 ar 
    15   16   15 ar 
    16   16   17 ar 
    17   17   18 ar 
    18   18   19 ar 
    19   20   24 1  
    20   20   21 1  
    21   21   23 ar 
    22   21   22 ar 
    23   24   25 1  
    24   25   33 ar 
    25   25   26 ar 
    26   26   27 ar 
    27   27   31 ar 
    28   27   28 1  
    29   28   29 1  
    30   29   30 1  
    31   30   31 1  
    32   31   32 ar 
    33   32   33 ar 
    34   18    7 1  
    35   19    8 1  
    36   20   34 1  
    37   24   35 1  
    38   24   36 1  
    39   26   37 1  
    40   29   38 1  
    41   29   39 1  
    42   32   40 1  
    43   33   41 1  
@<TRIPOS>SUBSTRUCTURE
     1 BYS         1

