### 
### Created by X-TOOL on Mon Sep 10 21:12:48 2018
### 

@<TRIPOS>MOLECULE
1jjt_ligand
   44    47     1     0     0
SMALL
GAST_HUCK


@<TRIPOS>ATOM
      1 H1         57.0444   24.8069   32.8654 H         1 BDS         0.0508
      2 H2         59.1234   23.0123   33.2566 H         1 BDS         0.0425
      3 H3         59.8969   24.0959   32.0506 H         1 BDS         0.0425
      4 H4         57.1582   21.7225   32.7145 H         1 BDS         0.0436
      5 H5         55.6920   20.6804   30.9883 H         1 BDS         0.0493
      6 H6         55.9112   22.3413   26.5861 H         1 BDS         0.0970
      7 H7         57.2621   21.1599   26.5083 H         1 BDS         0.0970
      8 H8         59.0468   24.1944   29.7028 H         1 BDS         0.0450
      9 C1         58.1260   24.9420   33.0130 C.3       1 BDS         0.0356
     10 C2         58.6070   26.1610   32.2540 C.2       1 BDS         0.0416
     11 O3         57.8030   26.9000   31.6360 O.co2     1 BDS        -0.5684
     12 O4         59.8480   26.3790   32.2340 O.co2     1 BDS        -0.5684
     13 C5         58.9370   23.7310   32.4450 C.3       1 BDS        -0.0103
     14 C6         58.1780   23.0330   31.3310 C.ar      1 BDS        -0.0606
     15 C7         57.2590   22.0130   31.6750 C.ar      1 BDS        -0.0800
     16 C8         56.4800   21.3720   30.7130 C.ar      1 BDS        -0.0478
     17 C9         56.7650   21.6650   29.3740 C.ar      1 BDS         0.1160
     18 O10        56.1730   21.1630   28.2860 O.3       1 BDS        -0.2956
     19 C11        56.7150   21.8570   27.1600 C.3       1 BDS         0.1854
     20 O12        57.6100   22.8450   27.6980 O.3       1 BDS        -0.2927
     21 C13        57.6250   22.7000   29.0310 C.ar      1 BDS         0.1170
     22 C14        58.3630   23.4020   29.9850 C.ar      1 BDS        -0.0396
     23 C15        58.4540   25.0100   34.5340 C.3       1 BDS         0.0356
     24 C16        58.4420   26.4470   35.0360 C.2       1 BDS         0.0416
     25 O17        57.5670   27.2450   34.6300 O.co2     1 BDS        -0.5684
     26 O18        59.3060   26.8330   35.8760 O.co2     1 BDS        -0.5684
     27 C19        57.3350   24.1930   35.2490 C.3       1 BDS        -0.0103
     28 C20        57.6160   24.0690   36.7340 C.ar      1 BDS        -0.0606
     29 C21        58.3830   22.9910   37.2010 C.ar      1 BDS        -0.0800
     30 C22        58.6700   22.8470   38.5690 C.ar      1 BDS        -0.0478
     31 C23        58.1480   23.7790   39.4550 C.ar      1 BDS         0.1160
     32 O24        58.3240   23.8810   40.7770 O.3       1 BDS        -0.2956
     33 C25        57.6010   25.0360   41.2320 C.3       1 BDS         0.1854
     34 O26        57.0740   25.6420   40.0380 O.3       1 BDS        -0.2927
     35 C27        57.3590   24.8350   39.0030 C.ar      1 BDS         0.1170
     36 C28        57.0780   24.9940   37.6570 C.ar      1 BDS        -0.0396
     37 H9         59.4401   24.5634   34.7292 H         1 BDS         0.0508
     38 H10        57.2862   23.1869   34.8071 H         1 BDS         0.0425
     39 H11        56.3708   24.7030   35.1069 H         1 BDS         0.0425
     40 H12        58.7597   22.2585   36.4962 H         1 BDS         0.0436
     41 H13        59.2845   22.0275   38.9238 H         1 BDS         0.0493
     42 H14        58.2740   25.7322   41.7538 H         1 BDS         0.0970
     43 H15        56.7848   24.7396   41.9073 H         1 BDS         0.0970
     44 H16        56.4559   25.8140   37.3168 H         1 BDS         0.0450
@<TRIPOS>BOND
     1    9    1 1  
     2   13    2 1  
     3   13    3 1  
     4   15    4 1  
     5   16    5 1  
     6   19    6 1  
     7    9   23 1  
     8   13    9 1  
     9    9   10 1  
    10   10   12 ar 
    11   10   11 ar 
    12   14   13 1  
    13   14   22 ar 
    14   15   14 ar 
    15   16   15 ar 
    16   17   16 ar 
    17   17   21 ar 
    18   18   17 1  
    19   18   19 1  
    20   19   20 1  
    21   20   21 1  
    22   21   22 ar 
    23   23   27 1  
    24   23   24 1  
    25   24   26 ar 
    26   24   25 ar 
    27   27   28 1  
    28   28   36 ar 
    29   28   29 ar 
    30   29   30 ar 
    31   30   31 ar 
    32   31   35 ar 
    33   31   32 1  
    34   32   33 1  
    35   33   34 1  
    36   34   35 1  
    37   35   36 ar 
    38   19    7 1  
    39   22    8 1  
    40   23   37 1  
    41   27   38 1  
    42   27   39 1  
    43   29   40 1  
    44   30   41 1  
    45   33   42 1  
    46   33   43 1  
    47   36   44 1  
@<TRIPOS>SUBSTRUCTURE
     1 BDS         1

