### 
### Created by X-TOOL on Mon Sep 10 21:12:48 2018
### 

@<TRIPOS>MOLECULE
1jk7_ligand
  124   130     1     0     0
SMALL
GAST_HUCK


@<TRIPOS>ATOM
      1 C1         84.7320   52.5870   22.0760 C.2       1 OKA         0.0761
      2 C2         84.5130   51.9650   23.4460 C.3       1 OKA         0.1097
      3 C3         85.8020   51.8750   24.2370 C.3       1 OKA         0.0053
      4 C4         86.4660   53.2300   24.6430 C.3       1 OKA         0.0447
      5 C5         87.7070   53.1020   25.3890 C.3       1 OKA        -0.0270
      6 C6         88.2490   54.4690   25.7830 C.3       1 OKA        -0.0339
      7 C7         87.1240   55.1760   26.6000 C.3       1 OKA         0.0604
      8 C8         85.8480   55.3270   25.8470 C.3       1 OKA         0.1391
      9 C9         84.7100   55.9060   26.5380 C.2       1 OKA        -0.0395
     10 C10        83.9760   56.9360   26.0960 C.2       1 OKA         0.0097
     11 C11        84.2890   57.5720   24.7500 C.3       1 OKA         0.0560
     12 C12        85.1530   56.6200   23.8730 C.3       1 OKA         0.0782
     13 C13        85.7790   57.3160   22.6710 C.3       1 OKA         0.0022
     14 C14        86.6190   56.3490   21.9220 C.2       1 OKA        -0.0907
     15 C15        87.8380   56.4730   21.6450 C.2       1 OKA        -0.0699
     16 C16        88.7790   55.5180   20.9260 C.3       1 OKA         0.0795
     17 C17        89.7590   56.0190   19.8730 C.3       1 OKA        -0.0148
     18 C18        91.0150   55.1000   19.9920 C.3       1 OKA         0.0055
     19 C19        90.6000   54.1200   21.1830 C.3       1 OKA         0.1734
     20 C20        91.7550   53.7910   22.0410 C.3       1 OKA         0.0040
     21 C21        91.2910   52.8040   23.1970 C.3       1 OKA        -0.0187
     22 C22        90.6520   51.5760   22.5060 C.3       1 OKA         0.0933
     23 C23        89.5400   52.0470   21.6190 C.3       1 OKA         0.1258
     24 C24        88.9160   50.7760   20.9570 C.3       1 OKA         0.1212
     25 C25        88.4170   49.7690   22.0900 C.2       1 OKA        -0.0118
     26 C26        89.5190   49.4740   23.0350 C.3       1 OKA         0.1222
     27 C27        90.6590   48.4960   22.6060 C.3       1 OKA         0.0935
     28 C28        90.0630   47.1120   22.2130 C.3       1 OKA        -0.0172
     29 C29        91.1050   46.0580   21.7310 C.3       1 OKA        -0.0146
     30 C30        90.3560   44.7100   21.4850 C.3       1 OKA         0.0671
     31 C31        89.6430   44.1410   22.7260 C.3       1 OKA        -0.0170
     32 C32        89.0400   42.7970   22.3110 C.3       1 OKA        -0.0432
     33 C33        90.1090   41.8280   21.7220 C.3       1 OKA         0.0017
     34 C34        90.9130   42.4630   20.6410 C.3       1 OKA         0.1703
     35 C35        92.1630   41.7070   20.2210 C.3       1 OKA         0.0015
     36 C36        92.7310   42.2150   18.8650 C.3       1 OKA        -0.0461
     37 C37        91.7240   42.3660   17.7510 C.3       1 OKA        -0.0292
     38 C38        90.4870   43.1060   18.2570 C.3       1 OKA         0.0509
     39 C39        90.5510   43.9420   23.9750 C.3       1 OKA        -0.0601
     40 C40        91.7570   46.5190   20.4420 C.3       1 OKA        -0.0600
     41 C41        87.2320   49.3660   22.1030 C.2       1 OKA        -0.1239
     42 C42        84.7660   57.9430   21.7610 C.3       1 OKA        -0.0531
     43 C43        82.8040   57.5150   26.8540 C.3       1 OKA         0.0182
     44 C44        83.9360   50.5520   23.1170 C.3       1 OKA        -0.0312
     45 O1         83.9670   53.6800   21.8290 O.co2     1 OKA        -0.5451
     46 O2         85.5070   52.2140   21.2070 O.co2     1 OKA        -0.5451
     47 O3         83.4800   52.6130   24.1090 O.3       1 OKA        -0.3851
     48 O4         85.4130   53.9720   25.3830 O.3       1 OKA        -0.4173
     49 O5         87.5860   56.4910   27.0330 O.3       1 OKA        -0.4027
     50 O6         86.1770   56.0460   24.6410 O.3       1 OKA        -0.4110
     51 O7         89.5730   54.8660   21.8870 O.3       1 OKA        -0.3362
     52 O8         89.9890   52.9340   20.5950 O.3       1 OKA        -0.3376
     53 O9         90.1980   50.7020   23.5310 O.3       1 OKA        -0.3528
     54 O10        87.8760   51.1260   20.0650 O.3       1 OKA        -0.3738
     55 O11        91.5940   48.3140   23.5810 O.3       1 OKA        -0.3867
     56 O12        91.3600   43.7670   20.9990 O.3       1 OKA        -0.3449
     57 O13        89.9870   42.5370   19.5200 O.3       1 OKA        -0.3486
     58 H1         86.5286   51.3154   23.6297 H         1 OKA         0.0310
     59 H2         85.5892   51.3170   25.1607 H         1 OKA         0.0310
     60 H3         86.7056   53.7850   23.7240 H         1 OKA         0.0579
     61 H4         88.4510   52.5863   24.7641 H         1 OKA         0.0290
     62 H5         87.5208   52.5128   26.2990 H         1 OKA         0.0290
     63 H6         88.4905   55.0550   24.8840 H         1 OKA         0.0278
     64 H7         89.1523   54.3556   26.4004 H         1 OKA         0.0278
     65 H8         86.9199   54.5639   27.4909 H         1 OKA         0.0465
     66 H9         84.4299   55.4669   27.4944 H         1 OKA         0.0430
     67 H10        84.8403   58.5096   24.9142 H         1 OKA         0.0713
     68 H11        83.3463   57.7879   24.2258 H         1 OKA         0.0713
     69 H12        84.4983   55.8178   23.5017 H         1 OKA         0.0659
     70 H13        86.4291   58.1190   23.0486 H         1 OKA         0.0449
     71 H14        86.1290   55.4395   21.5775 H         1 OKA         0.0454
     72 H15        88.2911   57.4085   21.9697 H         1 OKA         0.0475
     73 H16        88.1353   54.7782   20.4277 H         1 OKA         0.0722
     74 H17        90.0306   57.0666   20.0697 H         1 OKA         0.0311
     75 H18        89.3178   55.9369   18.8687 H         1 OKA         0.0311
     76 H19        91.9128   55.6818   20.2480 H         1 OKA         0.0319
     77 H20        91.1922   54.5432   19.0601 H         1 OKA         0.0319
     78 H21        92.1563   54.7136   22.4856 H         1 OKA         0.0318
     79 H22        92.5352   53.3061   21.4359 H         1 OKA         0.0318
     80 H23        90.5537   53.3000   23.8453 H         1 OKA         0.0293
     81 H24        92.1572   52.4918   23.7988 H         1 OKA         0.0293
     82 H25        91.4028   51.0562   21.8927 H         1 OKA         0.0627
     83 H26        88.7837   52.5630   22.2288 H         1 OKA         0.0677
     84 H27        89.7012   50.2713   20.3750 H         1 OKA         0.0820
     85 H28        89.0261   49.0024   23.8979 H         1 OKA         0.0822
     86 H29        91.1603   48.9261   21.7264 H         1 OKA         0.0647
     87 H30        89.3381   47.2709   21.4010 H         1 OKA         0.0296
     88 H31        89.5447   46.7018   23.0922 H         1 OKA         0.0296
     89 H32        91.8770   45.9203   22.5024 H         1 OKA         0.0324
     90 H33        89.5966   44.8689   20.7052 H         1 OKA         0.0602
     91 H34        88.8349   44.8325   23.0065 H         1 OKA         0.0323
     92 H35        88.2665   42.9759   21.5496 H         1 OKA         0.0270
     93 H36        88.5834   42.3260   23.1940 H         1 OKA         0.0270
     94 H37        89.5978   40.9452   21.3105 H         1 OKA         0.0317
     95 H38        90.7869   41.5157   22.5300 H         1 OKA         0.0317
     96 H39        91.9152   40.6398   20.1233 H         1 OKA         0.0317
     97 H40        92.9319   41.8354   20.9971 H         1 OKA         0.0317
     98 H41        93.4996   41.5021   18.5318 H         1 OKA         0.0268
     99 H42        93.1931   43.1980   19.0387 H         1 OKA         0.0268
    100 H43        91.4293   41.3697   17.3897 H         1 OKA         0.0287
    101 H44        92.1767   42.9360   16.9263 H         1 OKA         0.0287
    102 H45        89.6948   43.0363   17.4970 H         1 OKA         0.0561
    103 H46        90.7463   44.1624   18.4206 H         1 OKA         0.0561
    104 H47        90.9834   44.9089   24.2717 H         1 OKA         0.0233
    105 H48        91.3602   43.2377   23.7316 H         1 OKA         0.0233
    106 H49        89.9510   43.5388   24.8041 H         1 OKA         0.0233
    107 H50        92.2841   47.4685   20.6169 H         1 OKA         0.0233
    108 H51        90.9849   46.6647   19.6722 H         1 OKA         0.0233
    109 H52        92.4751   45.7583   20.1018 H         1 OKA         0.0233
    110 H53        86.5408   49.6820   21.3231 H         1 OKA         0.0077
    111 H54        86.8922   48.6993   22.8942 H         1 OKA         0.0077
    112 H55        85.2805   58.4264   20.9174 H         1 OKA         0.0253
    113 H56        84.1886   58.6955   22.3181 H         1 OKA         0.0253
    114 H57        84.0857   57.1672   21.3797 H         1 OKA         0.0253
    115 H58        82.6793   56.9753   27.8044 H         1 OKA         0.0651
    116 H59        81.8899   57.4114   26.2509 H         1 OKA         0.0651
    117 H60        82.9896   58.5797   27.0586 H         1 OKA         0.0651
    118 H61        83.0034   50.6611   22.5440 H         1 OKA         0.0249
    119 H62        83.7299   50.0129   24.0534 H         1 OKA         0.0249
    120 H63        84.6680   49.9865   22.5218 H         1 OKA         0.0249
    121 H64        82.7097   52.6298   23.5531 H         1 OKA         0.2089
    122 H65        86.9296   56.8871   27.5941 H         1 OKA         0.2080
    123 H66        87.1739   51.5459   20.5480 H         1 OKA         0.2138
    124 H67        91.9622   49.1547   23.8260 H         1 OKA         0.2102
@<TRIPOS>BOND
     1    1    2 1  
     2    1   45 ar 
     3    1   46 ar 
     4    2    3 1  
     5    2   44 1  
     6    2   47 1  
     7    3    4 1  
     8    4    5 1  
     9    4   48 1  
    10    5    6 1  
    11    6    7 1  
    12    7    8 1  
    13    7   49 1  
    14    8    9 1  
    15    8   48 1  
    16    8   50 1  
    17    9   10 2  
    18   10   11 1  
    19   10   43 1  
    20   11   12 1  
    21   12   13 1  
    22   12   50 1  
    23   13   14 1  
    24   13   42 1  
    25   14   15 2  
    26   15   16 1  
    27   16   17 1  
    28   16   51 1  
    29   17   18 1  
    30   18   19 1  
    31   19   20 1  
    32   19   51 1  
    33   19   52 1  
    34   20   21 1  
    35   21   22 1  
    36   22   23 1  
    37   22   53 1  
    38   23   24 1  
    39   23   52 1  
    40   24   25 1  
    41   24   54 1  
    42   25   26 1  
    43   25   41 2  
    44   26   27 1  
    45   26   53 1  
    46   27   28 1  
    47   27   55 1  
    48   28   29 1  
    49   29   30 1  
    50   29   40 1  
    51   30   31 1  
    52   30   56 1  
    53   31   32 1  
    54   31   39 1  
    55   32   33 1  
    56   33   34 1  
    57   34   35 1  
    58   34   56 1  
    59   34   57 1  
    60   35   36 1  
    61   36   37 1  
    62   37   38 1  
    63   38   57 1  
    64    3   58 1  
    65    3   59 1  
    66    4   60 1  
    67    5   61 1  
    68    5   62 1  
    69    6   63 1  
    70    6   64 1  
    71    7   65 1  
    72    9   66 1  
    73   11   67 1  
    74   11   68 1  
    75   12   69 1  
    76   13   70 1  
    77   14   71 1  
    78   15   72 1  
    79   16   73 1  
    80   17   74 1  
    81   17   75 1  
    82   18   76 1  
    83   18   77 1  
    84   20   78 1  
    85   20   79 1  
    86   21   80 1  
    87   21   81 1  
    88   22   82 1  
    89   23   83 1  
    90   24   84 1  
    91   26   85 1  
    92   27   86 1  
    93   28   87 1  
    94   28   88 1  
    95   29   89 1  
    96   30   90 1  
    97   31   91 1  
    98   32   92 1  
    99   32   93 1  
   100   33   94 1  
   101   33   95 1  
   102   35   96 1  
   103   35   97 1  
   104   36   98 1  
   105   36   99 1  
   106   37  100 1  
   107   37  101 1  
   108   38  102 1  
   109   38  103 1  
   110   39  104 1  
   111   39  105 1  
   112   39  106 1  
   113   40  107 1  
   114   40  108 1  
   115   40  109 1  
   116   41  110 1  
   117   41  111 1  
   118   42  112 1  
   119   42  113 1  
   120   42  114 1  
   121   43  115 1  
   122   43  116 1  
   123   43  117 1  
   124   44  118 1  
   125   44  119 1  
   126   44  120 1  
   127   47  121 1  
   128   49  122 1  
   129   54  123 1  
   130   55  124 1  
@<TRIPOS>SUBSTRUCTURE
     1 OKA         1

