### 
### Created by X-TOOL on Mon Sep 10 21:12:45 2018
### 

@<TRIPOS>MOLECULE
1jld_ligand
   99   101     1     0     0
SMALL
GAST_HUCK


@<TRIPOS>ATOM
      1 O          51.4700   25.4350    9.3670 O.2       1 0PP        -0.3762
      2 C          50.5590   24.7130    8.9000 C.2       1 0PP         0.2292
      3 N1         48.1710   24.2520    8.6240 N.ar      1 0PP        -0.2737
      4 C2         49.1780   25.0630    9.0140 C.ar      1 0PP         0.1219
      5 C3         48.7950   26.2640    9.6010 C.ar      1 0PP        -0.0136
      6 C4         47.4710   26.5910    9.7860 C.ar      1 0PP        -0.0314
      7 C4A        46.4930   25.6790    9.4010 C.ar      1 0PP         0.0097
      8 C5         45.1340   25.9660    9.6050 C.ar      1 0PP        -0.0444
      9 C6         44.1780   25.0330    9.2070 C.ar      1 0PP        -0.0546
     10 C7         44.5670   23.8590    8.5830 C.ar      1 0PP        -0.0545
     11 C8         45.9120   23.5790    8.4230 C.ar      1 0PP        -0.0370
     12 C8A        46.8650   24.4980    8.8280 C.ar      1 0PP         0.0527
     13 N          50.8130   23.5560    8.2440 N.am      1 0PP        -0.2598
     14 CA         52.0030   22.8000    7.8570 C.3       1 0PP         0.1562
     15 C          51.9010   22.5860    6.3820 C.2       1 0PP         0.2047
     16 O          51.5660   21.5230    5.8780 O.2       1 0PP        -0.3944
     17 CB         52.2940   21.5030    8.6990 C.3       1 0PP         0.0924
     18 OG1        52.2630   21.7830   10.0830 O.3       1 0PP        -0.3874
     19 CG2        53.6660   20.9320    8.4200 C.3       1 0PP        -0.0346
     20 CM         53.0020   23.2400    1.9740 C.3       1 0PP         0.0592
     21 N          52.1260   23.6900    5.6800 N.am      1 0PP        -0.2774
     22 CA         51.9530   23.7360    4.2490 C.3       1 0PP         0.0792
     23 CB         51.4800   25.1470    3.9090 C.3       1 0PP         0.0065
     24 CG         50.2000   25.4940    4.6090 C.ar      1 0PP        -0.0408
     25 CD1        49.0140   24.8240    4.3060 C.ar      1 0PP        -0.0603
     26 CD2        50.1550   26.4840    5.5930 C.ar      1 0PP        -0.0603
     27 CE1        47.8180   25.1670    4.9520 C.ar      1 0PP        -0.0686
     28 CE2        48.9750   26.8020    6.2710 C.ar      1 0PP        -0.0686
     29 CZ         47.7900   26.1530    5.9400 C.ar      1 0PP        -0.0687
     30 C          53.1780   23.2420    3.4810 C.3       1 0PP         0.0998
     31 O          54.2820   24.0700    3.7580 O.3       1 0PP        -0.3873
     32 N'         53.8160   22.1940    1.3720 N.am      1 0PP        -0.2840
     33 C'         53.3310   21.0160    1.0390 C.2       1 0PP         0.1819
     34 O'         52.1730   20.6780    1.2170 O.2       1 0PP        -0.3966
     35 C2'        54.3530   20.0750    0.4120 C.3       1 0PP         0.0702
     36 CT1        55.0150   19.0140    1.3740 C.3       1 0PP        -0.0160
     37 CT2        54.1180   17.8190    1.6870 C.3       1 0PP        -0.0576
     38 CT3        56.2290   18.4800    0.6270 C.3       1 0PP        -0.0576
     39 CT4        55.3950   19.6960    2.6770 C.3       1 0PP        -0.0576
     40 C1'        53.7680   19.5300   -0.9070 C.3       1 0PP         0.0573
     41 C          53.5070   20.6100   -1.9390 C.2       1 0PP         0.1788
     42 O          54.4620   21.3520   -2.5570 O.2       1 0PP        -0.3969
     43 N          52.2540   20.8780   -2.3260 N.am      1 0PP        -0.2838
     44 C3         51.9150   21.8640   -3.3120 C.3       1 0PP         0.0415
     45 C4         51.3430   21.1730   -4.5400 C.3       1 0PP        -0.0327
     46 C5         52.0920   19.8800   -4.9720 C.3       1 0PP        -0.0632
     47 C2         50.8200   22.7680   -2.7800 C.3       1 0PP        -0.0327
     48 C1         51.1740   23.6170   -1.5270 C.3       1 0PP        -0.0632
     49 H1         49.5601   26.9617    9.9216 H         1 0PP         0.0729
     50 H2         47.1946   27.5431   10.2243 H         1 0PP         0.0774
     51 H3         44.8324   26.8999   10.0655 H         1 0PP         0.0657
     52 H4         43.1266   25.2267    9.3864 H         1 0PP         0.0652
     53 H5         43.8197   23.1620    8.2213 H         1 0PP         0.0657
     54 H6         46.2203   22.6389    7.9800 H         1 0PP         0.0653
     55 H7         49.9718   23.1029    7.9489 H         1 0PP         0.1882
     56 H8         52.8688   23.4564    8.0289 H         1 0PP         0.0826
     57 H9         51.5289   20.7511    8.4556 H         1 0PP         0.0639
     58 H10        52.4410   20.9870   10.5700 H         1 0PP         0.2101
     59 H11        53.8190   20.0303    9.0311 H         1 0PP         0.0257
     60 H12        54.4325   21.6798    8.6715 H         1 0PP         0.0257
     61 H13        53.7446   20.6704    7.3545 H         1 0PP         0.0257
     62 H14        53.3098   24.2163    1.5713 H         1 0PP         0.0546
     63 H15        51.9440   23.0607    1.7324 H         1 0PP         0.0546
     64 H16        52.4248   24.5157    6.1585 H         1 0PP         0.1857
     65 H17        51.1353   23.0479    3.9885 H         1 0PP         0.0605
     66 H18        51.3208   25.2162    2.8228 H         1 0PP         0.0449
     67 H19        52.2565   25.8647    4.2123 H         1 0PP         0.0449
     68 H20        49.0175   24.0323    3.5655 H         1 0PP         0.0557
     69 H21        51.0633   27.0224    5.8385 H         1 0PP         0.0557
     70 H22        46.9002   24.6584    4.6800 H         1 0PP         0.0599
     71 H23        48.9832   27.5527    7.0530 H         1 0PP         0.0599
     72 H24        46.8624   26.4080    6.4397 H         1 0PP         0.0559
     73 H25        53.3964   22.2158    3.8114 H         1 0PP         0.0638
     74 H26        54.1075   24.9467    3.4364 H         1 0PP         0.2100
     75 H27        54.7845   22.3779    1.2043 H         1 0PP         0.1852
     76 H28        55.1940   20.7180    0.1131 H         1 0PP         0.0568
     77 H29        54.6483   17.1287    2.3596 H         1 0PP         0.0236
     78 H30        53.8631   17.2972    0.7528 H         1 0PP         0.0236
     79 H31        53.1964   18.1700    2.1742 H         1 0PP         0.0236
     80 H32        56.9041   19.3131    0.3815 H         1 0PP         0.0236
     81 H33        55.9015   17.9879   -0.3007 H         1 0PP         0.0236
     82 H34        56.7588   17.7532    1.2603 H         1 0PP         0.0236
     83 H35        56.0421   20.5596    2.4637 H         1 0PP         0.0236
     84 H36        55.9336   18.9843    3.3199 H         1 0PP         0.0236
     85 H37        54.4846   20.0381    3.1909 H         1 0PP         0.0236
     86 H38        52.8176   19.0230   -0.6843 H         1 0PP         0.0530
     87 H39        54.4791   18.8061   -1.3315 H         1 0PP         0.0530
     88 H40        51.5101   20.3605   -1.9030 H         1 0PP         0.1854
     89 H41        52.8061   22.4517   -3.5774 H         1 0PP         0.0556
     90 H42        51.3766   21.8838   -5.3788 H         1 0PP         0.0285
     91 H43        50.2973   20.9069   -4.3264 H         1 0PP         0.0285
     92 H44        51.6068   19.4557   -5.8634 H         1 0PP         0.0230
     93 H45        52.0597   19.1465   -4.1529 H         1 0PP         0.0230
     94 H46        53.1391   20.1233   -5.2053 H         1 0PP         0.0230
     95 H47        49.9583   22.1345   -2.5227 H         1 0PP         0.0285
     96 H48        50.5376   23.4617   -3.5856 H         1 0PP         0.0285
     97 H49        50.3046   24.2266   -1.2396 H         1 0PP         0.0230
     98 H50        52.0235   24.2762   -1.7588 H         1 0PP         0.0230
     99 H51        51.4443   22.9491   -0.6959 H         1 0PP         0.0230
@<TRIPOS>BOND
     1    2    1 2  
     2    2    4 1  
     3    4    3 ar 
     4    4    5 ar 
     5    5    6 ar 
     6    6    7 ar 
     7   12    7 ar 
     8    7    8 ar 
     9    8    9 ar 
    10   10    9 ar 
    11   11   10 ar 
    12   12   11 ar 
    13    3   12 ar 
    14   15   14 1  
    15   14   17 1  
    16   14   13 1  
    17   17   18 1  
    18   17   19 1  
    19   15   16 2  
    20   30   20 1  
    21   30   31 1  
    22   22   30 1  
    23   22   23 1  
    24   21   22 1  
    25   23   24 1  
    26   24   26 ar 
    27   24   25 ar 
    28   25   27 ar 
    29   27   29 ar 
    30   28   29 ar 
    31   26   28 ar 
    32   32   33 am 
    33   33   35 1  
    34   33   34 2  
    35   35   40 1  
    36   35   36 1  
    37   36   39 1  
    38   36   38 1  
    39   36   37 1  
    40   40   41 1  
    41   41   43 am 
    42   41   42 2  
    43   43   44 1  
    44   44   47 1  
    45   44   45 1  
    46   45   46 1  
    47   47   48 1  
    48   13    2 am 
    49   20   32 1  
    50   21   15 am 
    51    5   49 1  
    52    6   50 1  
    53    8   51 1  
    54    9   52 1  
    55   10   53 1  
    56   11   54 1  
    57   13   55 1  
    58   14   56 1  
    59   17   57 1  
    60   18   58 1  
    61   19   59 1  
    62   19   60 1  
    63   19   61 1  
    64   20   62 1  
    65   20   63 1  
    66   21   64 1  
    67   22   65 1  
    68   23   66 1  
    69   23   67 1  
    70   25   68 1  
    71   26   69 1  
    72   27   70 1  
    73   28   71 1  
    74   29   72 1  
    75   30   73 1  
    76   31   74 1  
    77   32   75 1  
    78   35   76 1  
    79   37   77 1  
    80   37   78 1  
    81   37   79 1  
    82   38   80 1  
    83   38   81 1  
    84   38   82 1  
    85   39   83 1  
    86   39   84 1  
    87   39   85 1  
    88   40   86 1  
    89   40   87 1  
    90   43   88 1  
    91   44   89 1  
    92   45   90 1  
    93   45   91 1  
    94   46   92 1  
    95   46   93 1  
    96   46   94 1  
    97   47   95 1  
    98   47   96 1  
    99   48   97 1  
   100   48   98 1  
   101   48   99 1  
@<TRIPOS>SUBSTRUCTURE
     1 0PP         1

