### 
### Created by X-TOOL on Mon Sep 10 21:12:48 2018
### 

@<TRIPOS>MOLECULE
1jlq_ligand
   34    35     1     0     0
SMALL
GAST_HUCK


@<TRIPOS>ATOM
      1 C1         -3.9010  -33.5840   22.5330 C.ar      1 SBN        -0.0321
      2 C2         -2.8990  -34.3040   21.8250 C.ar      1 SBN         0.0751
      3 C3         -2.0400  -35.2210   22.5310 C.ar      1 SBN         0.1372
      4 C4         -2.1770  -35.4350   23.9750 C.ar      1 SBN         0.1171
      5 C5         -3.2100  -34.6770   24.6290 C.ar      1 SBN        -0.0382
      6 C6         -4.0550  -33.7710   23.9240 C.ar      1 SBN        -0.0628
      7 S          -1.2120  -36.5520   24.8930 S.o2      1 SBN         0.0249
      8 O1         -1.8200  -36.7460   26.2190 O.2       1 SBN        -0.1635
      9 O2         -0.9970  -37.7880   24.1380 O.2       1 SBN        -0.1635
     10 C7          0.2830  -35.7500   25.1550 C.ar      1 SBN         0.0815
     11 C8          0.3400  -34.6140   26.0450 C.ar      1 SBN        -0.0422
     12 C9          1.5550  -33.9050   26.2480 C.ar      1 SBN        -0.0511
     13 C10         2.7350  -34.3310   25.5610 C.ar      1 SBN        -0.0596
     14 C11         2.7120  -35.4660   24.6790 C.ar      1 SBN        -0.0511
     15 C12         1.4720  -36.1590   24.4930 C.ar      1 SBN        -0.0422
     16 N2         -0.2340  -36.4910   21.2010 N.1       1 SBN        -0.3410
     17 C13        -1.0370  -35.9250   21.7910 C.1       1 SBN         0.0897
     18 N1         -2.7780  -34.1260   20.4120 N.pl3     1 SBN        -0.3283
     19 C14         1.5710  -32.7000   27.1980 C.3       1 SBN        -0.0327
     20 C15         3.9780  -35.9500   23.9690 C.3       1 SBN        -0.0327
     21 H1         -4.5464  -32.8917   22.0045 H         1 SBN         0.0542
     22 H2         -3.3510  -34.7992   25.6968 H         1 SBN         0.0552
     23 H3         -4.8210  -33.2219   24.4594 H         1 SBN         0.0655
     24 H4         -0.5566  -34.2976   26.5656 H         1 SBN         0.0518
     25 H5          3.6622  -33.7889   25.7079 H         1 SBN         0.0494
     26 H6          1.4400  -37.0167   23.8308 H         1 SBN         0.0518
     27 H7         -3.3989  -33.4671   19.9209 H         1 SBN         0.1768
     28 H8         -2.0699  -34.6567   19.8848 H         1 SBN         0.1768
     29 H9          0.5646  -32.5490   27.6157 H         1 SBN         0.0390
     30 H10         1.8768  -31.8003   26.6439 H         1 SBN         0.0390
     31 H11         2.2829  -32.8869   28.0154 H         1 SBN         0.0390
     32 H12         4.8206  -35.2947   24.2347 H         1 SBN         0.0390
     33 H13         3.8212  -35.9226   22.8806 H         1 SBN         0.0390
     34 H14         4.2024  -36.9806   24.2814 H         1 SBN         0.0390
@<TRIPOS>BOND
     1    1    2 ar 
     2    1    6 ar 
     3    2    3 ar 
     4    2   18 1  
     5    3    4 ar 
     6    3   17 1  
     7    4    5 ar 
     8    4    7 1  
     9    5    6 ar 
    10    7    8 2  
    11    7    9 2  
    12    7   10 1  
    13   10   11 ar 
    14   10   15 ar 
    15   11   12 ar 
    16   12   13 ar 
    17   12   19 1  
    18   13   14 ar 
    19   14   15 ar 
    20   14   20 1  
    21   17   16 3  
    22    1   21 1  
    23    5   22 1  
    24    6   23 1  
    25   11   24 1  
    26   13   25 1  
    27   15   26 1  
    28   18   27 1  
    29   18   28 1  
    30   19   29 1  
    31   19   30 1  
    32   19   31 1  
    33   20   32 1  
    34   20   33 1  
    35   20   34 1  
@<TRIPOS>SUBSTRUCTURE
     1 SBN         1

