### 
### Created by X-TOOL on Mon Sep 10 21:12:46 2018
### 

@<TRIPOS>MOLECULE
1jlx_ligand
   64    66     1     0     0
SMALL
GAST_HUCK


@<TRIPOS>ATOM
      1 C1         54.4680   88.3880  -31.3650 C.3       1 GAL         0.1884
      2 C2         54.1410   87.0000  -31.8680 C.3       1 GAL         0.1341
      3 C3         53.0150   87.0570  -32.8950 C.3       1 GAL         0.1141
      4 C4         51.8130   87.7140  -32.2780 C.3       1 GAL         0.1119
      5 C5         52.1740   89.0700  -31.6540 C.3       1 GAL         0.1130
      6 C6         51.0160   89.6280  -30.8610 C.3       1 GAL         0.0730
      7 O2         55.2960   86.4320  -32.4490 O.3       1 GAL        -0.3841
      8 O3         52.6550   85.7400  -33.2890 O.3       1 GAL        -0.3864
      9 O4         51.2730   86.8400  -31.3070 O.3       1 GAL        -0.3865
     10 O5         53.3060   88.9650  -30.7480 O.3       1 GAL        -0.3405
     11 O6         51.3090   90.9360  -30.4130 O.3       1 GAL        -0.3924
     12 C1         58.6450   90.1050  -29.5090 C.3       1 A2G         0.1871
     13 C2         57.7190   88.9110  -29.6630 C.3       1 A2G         0.1215
     14 C3         56.4200   89.3860  -30.3240 C.3       1 A2G         0.1176
     15 C4         55.8040   90.5250  -29.5200 C.3       1 A2G         0.1120
     16 C5         56.8140   91.6280  -29.2610 C.3       1 A2G         0.1130
     17 C6         56.3000   92.6510  -28.2690 C.3       1 A2G         0.0730
     18 C7         58.5600   86.6750  -29.9900 C.2       1 A2G         0.1733
     19 C8         59.2060   85.6570  -30.9180 C.3       1 A2G         0.0257
     20 N2         58.3510   87.8920  -30.4780 N.am      1 A2G        -0.2766
     21 O1         58.9630   90.6240  -30.7780 O.3       1 A2G        -0.3360
     22 O3         55.4880   88.2930  -30.4150 O.3       1 A2G        -0.3403
     23 O4         55.3480   90.0250  -28.2820 O.3       1 A2G        -0.3865
     24 O5         58.0120   91.0740  -28.6950 O.3       1 A2G        -0.3406
     25 O6         55.0610   93.2130  -28.6840 O.3       1 A2G        -0.3924
     26 O7         58.2760   86.3830  -28.8270 O.2       1 A2G        -0.3974
     27 C          60.2570   91.2380  -30.9430 C.3       1 MBN         0.0848
     28 C1         61.4180   90.3020  -31.1920 C.ar      1 MBN        -0.0174
     29 C2         61.2080   89.0660  -31.7870 C.ar      1 MBN        -0.0581
     30 C3         62.2330   88.1750  -31.9220 C.ar      1 MBN        -0.0685
     31 C4         63.4960   88.5030  -31.4660 C.ar      1 MBN        -0.0687
     32 C5         63.7220   89.7290  -30.8860 C.ar      1 MBN        -0.0685
     33 C6         62.6900   90.6200  -30.7530 C.ar      1 MBN        -0.0581
     34 H1         54.7953   89.0201  -32.2037 H         1 GAL         0.0938
     35 H2         53.8194   86.3770  -31.0204 H         1 GAL         0.0671
     36 H3         53.3453   87.6310  -33.7733 H         1 GAL         0.0648
     37 H4         51.0605   87.8838  -33.0621 H         1 GAL         0.0647
     38 H5         52.4269   89.7679  -32.4658 H         1 GAL         0.0647
     39 H6         50.8272   88.9812  -29.9915 H         1 GAL         0.0584
     40 H7         50.1202   89.6558  -31.4987 H         1 GAL         0.0584
     41 H8         55.9849   86.3811  -31.7968 H         1 GAL         0.2101
     42 H9         52.3624   85.2519  -32.5283 H         1 GAL         0.2100
     43 H10        51.0196   86.0243  -31.7228 H         1 GAL         0.2100
     44 H11        52.0811   90.9146  -29.8600 H         1 GAL         0.2095
     45 H12        59.5744   89.7811  -29.0178 H         1 GAL         0.0936
     46 H13        57.4935   88.4913  -28.6715 H         1 GAL         0.0633
     47 H14        56.6476   89.7476  -31.3376 H         1 GAL         0.0649
     48 H15        54.9551   90.9410  -30.0823 H         1 GAL         0.0647
     49 H16        57.0462   92.1264  -30.2137 H         1 GAL         0.0647
     50 H17        57.0420   93.4573  -28.1722 H         1 GAL         0.0584
     51 H18        56.1603   92.1622  -27.2935 H         1 GAL         0.0584
     52 H19        59.3195   84.6991  -30.3893 H         1 GAL         0.0467
     53 H20        60.1951   86.0223  -31.2313 H         1 GAL         0.0467
     54 H21        58.5704   85.5135  -31.8042 H         1 GAL         0.0467
     55 H22        58.6313   88.1071  -31.4135 H         1 GAL         0.1857
     56 H23        54.6950   89.3521  -28.4347 H         1 GAL         0.2100
     57 H24        54.7708   93.8478  -28.0396 H         1 GAL         0.2095
     58 H25        60.1937   91.9276  -31.7976 H         1 GAL         0.0725
     59 H26        60.4764   91.8074  -30.0278 H         1 GAL         0.0725
     60 H27        60.2197   88.8055  -32.1483 H         1 GAL         0.0557
     61 H28        62.0569   87.2114  -32.3862 H         1 GAL         0.0599
     62 H29        64.3090   87.7930  -31.5658 H         1 GAL         0.0559
     63 H30        64.7139   89.9897  -30.5350 H         1 GAL         0.0599
     64 H31        62.8729   91.5866  -30.2978 H         1 GAL         0.0557
@<TRIPOS>BOND
     1    1   10 1  
     2    1    2 1  
     3    2    7 1  
     4    2    3 1  
     5    3    8 1  
     6    3    4 1  
     7    4    9 1  
     8    5    4 1  
     9   10    5 1  
    10    5    6 1  
    11    6   11 1  
    12   12   24 1  
    13   12   21 1  
    14   13   12 1  
    15   13   20 1  
    16   14   13 1  
    17   22   14 1  
    18   14   15 1  
    19   15   23 1  
    20   15   16 1  
    21   16   24 1  
    22   16   17 1  
    23   17   25 1  
    24   20   18 am 
    25   18   26 2  
    26   18   19 1  
    27   27   28 1  
    28   28   33 ar 
    29   28   29 ar 
    30   29   30 ar 
    31   30   31 ar 
    32   32   31 ar 
    33   33   32 ar 
    34    1   34 1  
    35    2   35 1  
    36    3   36 1  
    37    4   37 1  
    38    5   38 1  
    39    6   39 1  
    40    6   40 1  
    41    7   41 1  
    42    8   42 1  
    43    9   43 1  
    44   11   44 1  
    45   12   45 1  
    46   13   46 1  
    47   14   47 1  
    48   15   48 1  
    49   16   49 1  
    50   17   50 1  
    51   17   51 1  
    52   19   52 1  
    53   19   53 1  
    54   19   54 1  
    55   20   55 1  
    56   23   56 1  
    57   25   57 1  
    58   27   58 1  
    59   27   59 1  
    60   29   60 1  
    61   30   61 1  
    62   31   62 1  
    63   32   63 1  
    64   33   64 1  
    65   21   27 1  
    66   22    1 1  
@<TRIPOS>SUBSTRUCTURE
     1 GAL         1

