### 
### Created by X-TOOL on Mon Sep 10 21:12:50 2018
### 

@<TRIPOS>MOLECULE
1jn2_ligand
   54    56     1     0     0
SMALL
GAST_HUCK


@<TRIPOS>ATOM
      1 C2         26.7480   27.5660   27.2040 C.3       1 SFP         0.0013
      2 C2A        25.9960   27.5080   28.3980 C.2       1 SFP         0.0429
      3 N2B        26.8860   27.4290   29.4890 N.pl3     1 SFP        -0.3195
      4 CA         24.6030   27.4930   28.4970 C.2       1 SFP         0.0033
      5 C4C        23.8700   27.4580   29.6670 C.2       1 SFP         0.0168
      6 C3         22.4860   27.4170   29.7550 C.2       1 SFP        -0.1047
      7 C4         22.1440   27.4230   31.0570 C.2       1 SFP        -0.1047
      8 C4A        23.3260   27.4580   31.8240 C.2       1 SFP         0.0168
      9 N4B        24.3970   27.4700   30.9590 N.pl3     1 SFP        -0.3047
     10 CB         23.4050   27.4760   33.2090 C.2       1 SFP         0.0033
     11 C6C        24.6030   27.4460   33.9590 C.2       1 SFP         0.0429
     12 C5         24.7010   27.4550   35.3610 C.3       1 SFP         0.0013
     13 N6B        25.9070   27.3550   33.4250 N.pl3     1 SFP        -0.3195
     14 C15        21.0460   28.4630   33.6140 C.ar      1 SFP        -0.0690
     15 C16        19.8510   28.4480   34.2740 C.ar      1 SFP        -0.0516
     16 C17        19.6210   27.5040   35.2930 C.ar      1 SFP         0.0402
     17 C18        20.5910   26.5480   35.6600 C.ar      1 SFP        -0.0516
     18 C19        21.8030   26.5300   35.0020 C.ar      1 SFP        -0.0690
     19 C20        22.0530   27.4960   33.9640 C.ar      1 SFP        -0.0497
     20 C27        23.9640   26.3540   26.3180 C.ar      1 SFP        -0.0690
     21 C28        23.7750   27.4790   27.1880 C.ar      1 SFP        -0.0497
     22 C29        22.8410   28.5110   26.8480 C.ar      1 SFP        -0.0690
     23 C30        22.1130   28.3970   25.6420 C.ar      1 SFP        -0.0516
     24 C31        22.3190   27.2950   24.8070 C.ar      1 SFP         0.0402
     25 C32        23.2370   26.2690   25.1250 C.ar      1 SFP        -0.0516
     26 S2         18.0950   27.4980   36.1410 S.o2      1 SFP        -0.1680
     27 O5         17.2430   28.5390   35.6510 O.co2     1 SFP        -0.4811
     28 O6         18.4080   27.6960   37.5150 O.co2     1 SFP        -0.4811
     29 O7         17.4300   26.1250   35.9280 O.co2     1 SFP        -0.4811
     30 S4         21.4420   27.1510   23.3080 S.o2      1 SFP        -0.1680
     31 O11        22.3500   27.4330   22.2650 O.co2     1 SFP        -0.4811
     32 O12        20.3390   28.0710   23.2660 O.co2     1 SFP        -0.4811
     33 O13        20.9530   25.7200   23.2290 O.co2     1 SFP        -0.4811
     34 H1         26.0655   27.6280   26.3435 H         1 SFP         0.0490
     35 H2         27.3673   26.6611   27.1163 H         1 SFP         0.0490
     36 H3         27.3968   28.4541   27.2221 H         1 SFP         0.0490
     37 H4         26.5193   27.3784   30.4502 H         1 SFP         0.1880
     38 H5         27.9028   27.4219   29.3247 H         1 SFP         0.1880
     39 H6         21.7944   27.3854   28.9144 H         1 SFP         0.0160
     40 H7         21.1286   27.4041   31.4501 H         1 SFP         0.0160
     41 H8         25.3944   27.4849   31.2159 H         1 SFP         0.2189
     42 H9         25.7607   27.4253   35.6547 H         1 SFP         0.0490
     43 H10        24.1823   26.5757   35.7705 H         1 SFP         0.0490
     44 H11        24.2369   28.3711   35.7552 H         1 SFP         0.0490
     45 H12        26.0454   27.3348   32.4045 H         1 SFP         0.1880
     46 H13        26.7198   27.3089   34.0559 H         1 SFP         0.1880
     47 H14        21.2341   29.1941   32.8361 H         1 SFP         0.0523
     48 H15        19.0791   29.1630   34.0135 H         1 SFP         0.0605
     49 H16        20.3861   25.8352   36.4506 H         1 SFP         0.0605
     50 H17        22.5582   25.7975   35.2631 H         1 SFP         0.0523
     51 H18        24.6671   25.5729   26.5836 H         1 SFP         0.0523
     52 H19        22.6956   29.3625   27.5029 H         1 SFP         0.0523
     53 H20        21.3967   29.1621   25.3652 H         1 SFP         0.0605
     54 H21        23.3762   25.4284   24.4549 H         1 SFP         0.0605
@<TRIPOS>BOND
     1    2    1 1  
     2    2    3 1  
     3    4    2 2  
     4    5    4 1  
     5    4   21 1  
     6    5    6 2  
     7    9    5 1  
     8    7    6 1  
     9    8    7 2  
    10    8    9 1  
    11   10    8 1  
    12   10   11 2  
    13   19   10 1  
    14   11   12 1  
    15   11   13 1  
    16   14   15 ar 
    17   19   14 ar 
    18   15   16 ar 
    19   16   17 ar 
    20   16   26 1  
    21   17   18 ar 
    22   18   19 ar 
    23   21   22 ar 
    24   22   23 ar 
    25   23   24 ar 
    26   24   25 ar 
    27   24   30 1  
    28   26   27 ar 
    29   26   28 ar 
    30   26   29 ar 
    31   30   31 ar 
    32   30   32 ar 
    33   30   33 ar 
    34   25   20 ar 
    35   21   20 ar 
    36    1   34 1  
    37    1   35 1  
    38    1   36 1  
    39    3   37 1  
    40    3   38 1  
    41    6   39 1  
    42    7   40 1  
    43    9   41 1  
    44   12   42 1  
    45   12   43 1  
    46   12   44 1  
    47   13   45 1  
    48   13   46 1  
    49   14   47 1  
    50   15   48 1  
    51   17   49 1  
    52   18   50 1  
    53   20   51 1  
    54   22   52 1  
    55   23   53 1  
    56   25   54 1  
@<TRIPOS>SUBSTRUCTURE
     1 SFP         1

