### 
### Created by X-TOOL on Mon Sep 10 21:12:48 2018
### 

@<TRIPOS>MOLECULE
1jq3_ligand
   62    64     1     0     0
SMALL
GAST_HUCK


@<TRIPOS>ATOM
      1 N          21.5780   41.0790   14.0790 N.4       1 AAT         0.2185
      2 CA         22.7460   40.4890   14.5240 C.3       1 AAT        -0.0344
      3 CB         22.7760   39.0760   14.1700 C.3       1 AAT        -0.0008
      4 CG         22.4580   38.8830   12.7540 C.3       1 AAT         0.0101
      5 SD         21.0460   37.7910   12.6310 S.3       1 AAT        -0.1545
      6 C5'        21.0340   37.2430   10.9120 C.3       1 AAT         0.0229
      7 C4'        19.6960   36.7540   10.4430 C.3       1 AAT         0.0996
      8 O4'        19.6780   36.7320    9.1150 O.3       1 AAT        -0.3383
      9 C3'        19.3830   35.3960   10.8900 C.3       1 AAT         0.1132
     10 O3'        18.2600   35.5530   11.6940 O.3       1 AAT        -0.3864
     11 C2'        19.0260   34.5680    9.5690 C.3       1 AAT         0.1385
     12 O2'        17.9960   33.5940    9.6040 O.3       1 AAT        -0.3836
     13 C1'        18.8480   35.7300    8.6020 C.3       1 AAT         0.2009
     14 N9         19.3350   35.5300    7.2670 N.pl3     1 AAT        -0.1919
     15 C8         20.1150   34.5520    6.7210 C.2       1 AAT         0.1123
     16 N7         19.8700   34.2260    5.4320 N.2       1 AAT        -0.2958
     17 C5         18.8730   34.9980    5.1040 C.ar      1 AAT         0.1045
     18 C6         18.1520   35.1230    3.8090 C.ar      1 AAT         0.1298
     19 N6         18.4770   34.3680    2.6830 N.pl3     1 AAT        -0.3152
     20 N1         17.0850   36.0300    3.6670 N.ar      1 AAT        -0.2698
     21 C2         16.7850   36.7660    4.8110 C.ar      1 AAT         0.0533
     22 N3         17.4070   36.7240    6.0650 N.ar      1 AAT        -0.2714
     23 C4         18.4790   35.8210    6.1990 C.ar      1 AAT         0.1613
     24 C11        23.6410   38.2720   12.0430 C.3       1 AAT        -0.0410
     25 C12        25.0800   38.7400   12.0320 C.3       1 AAT        -0.0519
     26 C13        25.9720   37.9360   12.9580 C.3       1 AAT        -0.0482
     27 C14        27.3170   37.4020   12.5000 C.3       1 AAT        -0.0126
     28 C15        28.2250   36.6020   13.4140 C.3       1 AAT        -0.0354
     29 N16        29.4990   36.0030   13.2320 N.4       1 AAT         0.2185
     30 H1         21.5763   42.0544   14.3331 H         1 AAT         0.1994
     31 H2         20.7870   40.6200   14.5029 H         1 AAT         0.1994
     32 H3         21.5189   40.9929   13.0764 H         1 AAT         0.1994
     33 H4         22.8070   40.5886   15.6178 H         1 AAT         0.0813
     34 H5         23.6057   40.9956   14.0611 H         1 AAT         0.0813
     35 H6         22.0377   38.5363   14.7812 H         1 AAT         0.0327
     36 H7         23.7809   38.6761   14.3707 H         1 AAT         0.0327
     37 H8         22.2164   39.8525   12.2939 H         1 AAT         0.0414
     38 H9         21.7602   36.4239   10.8038 H         1 AAT         0.0403
     39 H10        21.3369   38.0880   10.2763 H         1 AAT         0.0403
     40 H11        18.9225   37.4414   10.8160 H         1 AAT         0.0632
     41 H12        20.2134   34.9298   11.4405 H         1 AAT         0.0647
     42 H13        18.4948   36.0465   12.4711 H         1 AAT         0.2100
     43 H14        19.9238   34.0056    9.2729 H         1 AAT         0.0676
     44 H15        17.1778   34.0087    9.8510 H         1 AAT         0.2101
     45 H16        17.7911   36.0335    8.5735 H         1 AAT         0.0996
     46 H17        20.8970   34.0581    7.2959 H         1 AAT         0.1349
     47 H18        17.9464   34.4922    1.8089 H         1 AAT         0.1820
     48 H19        19.2477   33.6860    2.7251 H         1 AAT         0.1820
     49 H20        15.9607   37.4639    4.7183 H         1 AAT         0.0996
     50 H21        23.3479   38.2574   10.9829 H         1 AAT         0.0276
     51 H22        23.6894   37.2413   12.4243 H         1 AAT         0.0276
     52 H23        25.1082   39.7938   12.3460 H         1 AAT         0.0266
     53 H24        25.4693   38.6522   11.0070 H         1 AAT         0.0266
     54 H25        25.3832   37.0624   13.2744 H         1 AAT         0.0267
     55 H26        26.1734   38.5774   13.8286 H         1 AAT         0.0267
     56 H27        27.9005   38.2770   12.1777 H         1 AAT         0.0317
     57 H28        27.1117   36.7582   11.6320 H         1 AAT         0.0317
     58 H29        27.5911   35.7586   13.7253 H         1 AAT         0.0813
     59 H30        28.3826   37.2771   14.2681 H         1 AAT         0.0813
     60 H31        29.7824   35.5498   14.0866 H         1 AAT         0.1994
     61 H32        30.1723   36.7126   12.9888 H         1 AAT         0.1994
     62 H33        29.4470   35.3212   12.4914 H         1 AAT         0.1994
@<TRIPOS>BOND
     1    1    2 1  
     2    2    3 1  
     3    3    4 1  
     4    4   24 1  
     5    4    5 1  
     6    5    6 1  
     7    6    7 1  
     8    7    9 1  
     9    7    8 1  
    10    8   13 1  
    11   13   14 1  
    12   13   11 1  
    13   11   12 1  
    14   11    9 1  
    15    9   10 1  
    16   14   23 1  
    17   14   15 1  
    18   15   16 2  
    19   16   17 1  
    20   17   23 ar 
    21   17   18 ar 
    22   18   20 ar 
    23   18   19 1  
    24   20   21 ar 
    25   21   22 ar 
    26   22   23 ar 
    27   24   25 1  
    28   25   26 1  
    29   26   27 1  
    30   27   28 1  
    31   28   29 1  
    32    1   30 1  
    33    1   31 1  
    34    1   32 1  
    35    2   33 1  
    36    2   34 1  
    37    3   35 1  
    38    3   36 1  
    39    4   37 1  
    40    6   38 1  
    41    6   39 1  
    42    7   40 1  
    43    9   41 1  
    44   10   42 1  
    45   11   43 1  
    46   12   44 1  
    47   13   45 1  
    48   15   46 1  
    49   19   47 1  
    50   19   48 1  
    51   21   49 1  
    52   24   50 1  
    53   24   51 1  
    54   25   52 1  
    55   25   53 1  
    56   26   54 1  
    57   26   55 1  
    58   27   56 1  
    59   27   57 1  
    60   28   58 1  
    61   28   59 1  
    62   29   60 1  
    63   29   61 1  
    64   29   62 1  
@<TRIPOS>SUBSTRUCTURE
     1 AAT         1

