### 
### Created by X-TOOL on Mon Sep 10 21:12:49 2018
### 

@<TRIPOS>MOLECULE
1jq8_ligand
   83    83     1     0     0
SMALL
GAST_HUCK


@<TRIPOS>ATOM
      1 N           9.9060   15.7700   37.3930 N.4       1 LEU         0.2379
      2 CA          9.0230   16.9600   37.4950 C.3       1 LEU         0.0652
      3 C           9.8540   18.1800   37.8930 C.2       1 LEU         0.2267
      4 O          11.0100   18.0540   38.3070 O.2       1 LEU        -0.3907
      5 CB          7.9390   16.7100   38.5480 C.3       1 LEU         0.0102
      6 CG          6.5120   17.2500   38.3840 C.3       1 LEU        -0.0394
      7 CD1         6.4390   18.2960   37.2830 C.3       1 LEU        -0.0623
      8 CD2         5.5880   16.0870   38.0710 C.3       1 LEU        -0.0623
      9 N           9.2600   19.3600   37.7560 N.am      1 ALA        -0.2613
     10 CA          9.9280   20.6050   38.1120 C.3       1 ALA         0.1283
     11 C          10.4790   20.4350   39.5250 C.2       1 ALA         0.2036
     12 O           9.8690   19.7440   40.3240 O.2       1 ALA        -0.3944
     13 CB          8.9300   21.7390   38.0720 C.3       1 ALA        -0.0244
     14 N          11.6160   21.0590   39.8340 N.am      1 ILE        -0.2635
     15 CA         12.2350   20.9540   41.1670 C.3       1 ILE         0.1335
     16 C          12.7110   22.3290   41.6560 C.2       1 ILE         0.2043
     17 O          12.6620   23.3020   40.9070 O.2       1 ILE        -0.3944
     18 CB         13.4940   20.0800   41.1310 C.3       1 ILE        -0.0037
     19 CG1        13.9330   19.7280   42.5570 C.3       1 ILE        -0.0491
     20 CG2        14.6040   20.8460   40.4160 C.3       1 ILE        -0.0582
     21 CD1        15.4090   19.4820   42.7380 C.3       1 ILE        -0.0648
     22 N          13.1440   22.4150   42.9030 N.am      1 TYR        -0.2621
     23 CA         13.7030   23.6520   43.3930 C.3       1 TYR         0.1390
     24 C          15.1970   23.5630   43.0690 C.2       1 TYR         0.2053
     25 O          15.9720   22.9800   43.8170 O.2       1 TYR        -0.3942
     26 CB         13.3650   23.8970   44.8820 C.3       1 TYR         0.0163
     27 CG         14.4860   23.7370   45.9200 C.ar      1 TYR        -0.0493
     28 CD1        15.6310   24.5330   45.9230 C.ar      1 TYR        -0.0685
     29 CD2        14.3710   22.7480   46.8990 C.ar      1 TYR        -0.0685
     30 CE1        16.6390   24.3360   46.8690 C.ar      1 TYR        -0.0398
     31 CE2        15.3650   22.5490   47.8410 C.ar      1 TYR        -0.0398
     32 CZ         16.4930   23.3370   47.8180 C.ar      1 TYR         0.0805
     33 OH         17.4860   23.1350   48.7540 O.3       1 TYR        -0.3376
     34 N          15.5340   24.1240   41.9310 N.am      1 SER        -0.2671
     35 CA         16.8960   24.1240   41.3970 C.3       1 SER         0.1173
     36 C          17.9590   24.4720   42.4230 C.2       1 SER         0.0623
     37 O          17.6670   24.6320   43.6050 O.co2     1 SER        -0.5665
     38 CB         16.5780   24.7590   40.0370 C.3       1 SER         0.0789
     39 OG         17.9160   25.1700   39.8350 O.3       1 SER        -0.3910
     40 OXT        19.2190   24.0740   42.0110 O.co2     1 SER        -0.5665
     41 H1          9.3574   14.9661   37.1306 H         1 LEU         0.2015
     42 H2         10.3456   15.6004   38.2841 H         1 LEU         0.2015
     43 H3         10.6141   15.9359   36.6951 H         1 LEU         0.2015
     44 H4          8.5476   17.1451   36.5205 H         1 LEU         0.1098
     45 H5          8.3213   17.1292   39.4904 H         1 LEU         0.0348
     46 H6          7.8469   15.6180   38.6431 H         1 LEU         0.0348
     47 H7          6.1966   17.7154   39.3295 H         1 LEU         0.0299
     48 H8          5.4054   18.6611   37.1921 H         1 LEU         0.0232
     49 H9          6.7545   17.8474   36.3295 H         1 LEU         0.0232
     50 H10         7.1042   19.1363   37.5308 H         1 LEU         0.0232
     51 H11         5.6527   15.3403   38.8762 H         1 LEU         0.0232
     52 H12         5.8884   15.6260   37.1185 H         1 LEU         0.0232
     53 H13         4.5533   16.4518   37.9916 H         1 LEU         0.0232
     54 H14         8.3269   19.3950   37.3980 H         1 ALA         0.1884
     55 H15        10.7490   20.8105   37.4093 H         1 ALA         0.0797
     56 H16         9.4330   22.6797   38.3406 H         1 ALA         0.0277
     57 H17         8.1192   21.5394   38.7880 H         1 ALA         0.0277
     58 H18         8.5114   21.8235   37.0583 H         1 ALA         0.0277
     59 H19        12.0645   21.6180   39.1365 H         1 ILE         0.1883
     60 H20        11.5020   20.5327   41.8706 H         1 ILE         0.0803
     61 H21        13.2782   19.1521   40.5811 H         1 ILE         0.0345
     62 H22        13.3975   18.8167   42.8616 H         1 ILE         0.0267
     63 H23        13.6446   20.5603   43.2159 H         1 ILE         0.0267
     64 H24        14.2794   21.0936   39.3946 H         1 ILE         0.0235
     65 H25        15.5097   20.2233   40.3720 H         1 ILE         0.0235
     66 H26        14.8228   21.7731   40.9660 H         1 ILE         0.0235
     67 H27        15.6138   19.2390   43.7911 H         1 ILE         0.0230
     68 H28        15.9688   20.3855   42.4547 H         1 ILE         0.0230
     69 H29        15.7216   18.6419   42.1004 H         1 ILE         0.0230
     70 H30        13.0838   21.6208   43.5077 H         1 TYR         0.1885
     71 H31        13.2736   24.4897   42.8239 H         1 TYR         0.0821
     72 H32        12.5659   23.1920   45.1547 H         1 TYR         0.0453
     73 H33        12.9891   24.9274   44.9652 H         1 TYR         0.0453
     74 H34        15.7400   25.3154   45.1807 H         1 TYR         0.0530
     75 H35        13.4852   22.1235   46.9216 H         1 TYR         0.0530
     76 H36        17.5266   24.9582   46.8610 H         1 TYR         0.0525
     77 H37        15.2557   21.7762   48.5933 H         1 TYR         0.0525
     78 H38        18.2981   22.9191   48.3109 H         1 TYR         0.2458
     79 H39        14.8189   24.5772   41.3988 H         1 SER         0.1876
     80 H40        17.1613   23.0844   41.1543 H         1 SER         0.0749
     81 H41        15.8679   25.5967   40.1006 H         1 SER         0.0599
     82 H42        16.2249   24.0350   39.2879 H         1 SER         0.0599
     83 H43        18.4833   24.4080   39.8333 H         1 SER         0.2096
@<TRIPOS>BOND
     1    3    2 1  
     2    2    5 1  
     3    2    1 1  
     4    5    6 1  
     5    6    8 1  
     6    6    7 1  
     7    3    4 2  
     8   11   10 1  
     9   10   13 1  
    10   10    9 1  
    11   11   12 2  
    12   16   15 1  
    13   15   18 1  
    14   15   14 1  
    15   18   19 1  
    16   18   20 1  
    17   19   21 1  
    18   16   17 2  
    19   24   23 1  
    20   23   26 1  
    21   23   22 1  
    22   26   27 1  
    23   27   29 ar 
    24   27   28 ar 
    25   28   30 ar 
    26   30   32 ar 
    27   32   33 1  
    28   31   32 ar 
    29   29   31 ar 
    30   24   25 2  
    31   35   36 1  
    32   35   38 1  
    33   34   35 1  
    34   38   39 1  
    35   36   40 ar 
    36   36   37 ar 
    37    9    3 am 
    38   14   11 am 
    39   22   16 am 
    40   24   34 am 
    41    1   41 1  
    42    1   42 1  
    43    1   43 1  
    44    2   44 1  
    45    5   45 1  
    46    5   46 1  
    47    6   47 1  
    48    7   48 1  
    49    7   49 1  
    50    7   50 1  
    51    8   51 1  
    52    8   52 1  
    53    8   53 1  
    54    9   54 1  
    55   10   55 1  
    56   13   56 1  
    57   13   57 1  
    58   13   58 1  
    59   14   59 1  
    60   15   60 1  
    61   18   61 1  
    62   19   62 1  
    63   19   63 1  
    64   20   64 1  
    65   20   65 1  
    66   20   66 1  
    67   21   67 1  
    68   21   68 1  
    69   21   69 1  
    70   22   70 1  
    71   23   71 1  
    72   26   72 1  
    73   26   73 1  
    74   28   74 1  
    75   29   75 1  
    76   30   76 1  
    77   31   77 1  
    78   33   78 1  
    79   34   79 1  
    80   35   80 1  
    81   38   81 1  
    82   38   82 1  
    83   39   83 1  
@<TRIPOS>SUBSTRUCTURE
     1 LEU         1

