### 
### Created by X-TOOL on Mon Sep 10 21:12:49 2018
### 

@<TRIPOS>MOLECULE
1jqd_ligand
   46    48     1     0     0
SMALL
GAST_HUCK


@<TRIPOS>ATOM
      1 N          41.9950  -23.2310   -0.6930 N.4       1 SAH         0.2327
      2 CA         43.3370  -23.9400   -0.3730 C.3       1 SAH         0.0291
      3 CB         43.2460  -25.4210   -0.8620 C.3       1 SAH         0.0114
      4 CG         42.2290  -26.1880   -0.1680 C.3       1 SAH         0.0005
      5 SD         42.8660  -27.4470    0.8810 S.3       1 SAH        -0.1578
      6 C          44.4870  -23.3630   -1.1810 C.2       1 SAH         0.0844
      7 O          44.2200  -23.0940   -2.3970 O.co2     1 SAH        -0.5643
      8 OXT        45.6610  -23.6460   -0.8290 O.co2     1 SAH        -0.5643
      9 C5'        41.2850  -27.6290    1.7190 C.3       1 SAH         0.0226
     10 C4'        41.0400  -26.5490    2.7860 C.3       1 SAH         0.0995
     11 O4'        39.6880  -26.7880    3.2020 O.3       1 SAH        -0.3383
     12 C3'        41.9820  -26.7020    4.0540 C.3       1 SAH         0.1132
     13 O3'        42.5470  -25.4180    4.5000 O.3       1 SAH        -0.3864
     14 C2'        40.9480  -27.2130    5.0190 C.3       1 SAH         0.1385
     15 O2'        41.1780  -26.9930    6.3780 O.3       1 SAH        -0.3836
     16 C1'        39.6510  -26.5530    4.5570 C.3       1 SAH         0.2009
     17 N9         38.3840  -27.1530    4.9780 N.pl3     1 SAH        -0.1919
     18 C8         38.1510  -28.5230    5.3180 C.2       1 SAH         0.1123
     19 N7         36.9270  -28.7490    5.5670 N.2       1 SAH        -0.2958
     20 C5         36.2710  -27.5280    5.4160 C.ar      1 SAH         0.1045
     21 C6         34.8990  -27.1010    5.5240 C.ar      1 SAH         0.1298
     22 N6         33.9370  -28.0030    5.7500 N.pl3     1 SAH        -0.3152
     23 N1         34.5590  -25.7330    5.3580 N.ar      1 SAH        -0.2698
     24 C2         35.5600  -24.8210    5.0320 C.ar      1 SAH         0.0533
     25 N3         36.8400  -25.1480    4.8430 N.ar      1 SAH        -0.2714
     26 C4         37.1600  -26.5080    5.0670 C.ar      1 SAH         0.1613
     27 H1         41.2586  -23.6400   -0.1394 H         1 SAH         0.2010
     28 H2         41.7811  -23.3425   -1.6717 H         1 SAH         0.2010
     29 H3         42.0732  -22.2498   -0.4757 H         1 SAH         0.2010
     30 H4         43.5457  -23.8813    0.7054 H         1 SAH         0.1024
     31 H5         44.2207  -25.9040   -0.6990 H         1 SAH         0.0347
     32 H6         43.0119  -25.4210   -1.9368 H         1 SAH         0.0347
     33 H7         41.5806  -26.6611   -0.9201 H         1 SAH         0.0379
     34 H8         41.6340  -25.4959    0.4459 H         1 SAH         0.0379
     35 H9         41.2584  -28.6148    2.2062 H         1 SAH         0.0402
     36 H10        40.4824  -27.5688    0.9692 H         1 SAH         0.0402
     37 H11        41.1596  -25.5444    2.3543 H         1 SAH         0.0632
     38 H12        42.7943  -27.4242    3.8850 H         1 SAH         0.0647
     39 H13        41.8522  -24.7736    4.5666 H         1 SAH         0.2100
     40 H14        40.8673  -28.3019    4.8860 H         1 SAH         0.0676
     41 H15        41.2408  -26.0591    6.5403 H         1 SAH         0.2101
     42 H16        39.6587  -25.4830    4.8119 H         1 SAH         0.0996
     43 H17        38.9311  -29.2818    5.3584 H         1 SAH         0.1349
     44 H18        32.9555  -27.7006    5.8277 H         1 SAH         0.1820
     45 H19        34.1780  -28.9998    5.8463 H         1 SAH         0.1820
     46 H20        35.2815  -23.7789    4.9249 H         1 SAH         0.0996
@<TRIPOS>BOND
     1    1    2 1  
     2    2    6 1  
     3    2    3 1  
     4    3    4 1  
     5    4    5 1  
     6    5    9 1  
     7    9   10 1  
     8   10   12 1  
     9   10   11 1  
    10   11   16 1  
    11   16   17 1  
    12   16   14 1  
    13   14   15 1  
    14   14   12 1  
    15   12   13 1  
    16   17   26 1  
    17   17   18 1  
    18   18   19 2  
    19   19   20 1  
    20   20   26 ar 
    21   20   21 ar 
    22   21   23 ar 
    23   21   22 1  
    24   23   24 ar 
    25   24   25 ar 
    26   25   26 ar 
    27    6    8 ar 
    28    6    7 ar 
    29    1   27 1  
    30    1   28 1  
    31    1   29 1  
    32    2   30 1  
    33    3   31 1  
    34    3   32 1  
    35    4   33 1  
    36    4   34 1  
    37    9   35 1  
    38    9   36 1  
    39   10   37 1  
    40   12   38 1  
    41   13   39 1  
    42   14   40 1  
    43   15   41 1  
    44   16   42 1  
    45   18   43 1  
    46   22   44 1  
    47   22   45 1  
    48   24   46 1  
@<TRIPOS>SUBSTRUCTURE
     1 SAH         1

