### 
### Created by X-TOOL on Mon Sep 10 21:12:49 2018
### 

@<TRIPOS>MOLECULE
1jqe_ligand
   59    61     1     0     0
SMALL
GAST_HUCK


@<TRIPOS>ATOM
      1 C1         41.6650  -31.1290    4.2750 C.ar      1 QUN         0.0930
      2 C2         40.4360  -30.7000    5.0250 C.ar      1 QUN        -0.0268
      3 C3         39.4220  -31.7070    5.4890 C.ar      1 QUN        -0.0508
      4 C4         39.6240  -33.1750    5.2080 C.ar      1 QUN         0.0115
      5 C5         40.9070  -33.6220    4.4270 C.ar      1 QUN         0.0269
      6 C6         41.8640  -32.5680    4.0010 C.ar      1 QUN        -0.0217
      7 N1         38.6510  -34.1250    5.6560 N.ar      1 QUN        -0.3423
      8 C7         38.8290  -35.5270    5.3920 C.ar      1 QUN         0.0155
      9 C8         40.0720  -36.0780    4.6280 C.ar      1 QUN         0.0335
     10 C9         41.1140  -35.1620    4.1350 C.ar      1 QUN         0.0909
     11 C10        37.8190  -36.5020    5.8680 C.ar      1 QUN        -0.0370
     12 C11        38.0080  -37.9840    5.5990 C.ar      1 QUN         0.0404
     13 C12        39.1880  -38.4890    4.8670 C.ar      1 QUN        -0.0471
     14 C13        40.2050  -37.5440    4.3850 C.ar      1 QUN        -0.0482
     15 CL         36.8820  -39.0590    6.1370 Cl        1 QUN        -0.0667
     16 O          42.6930  -30.0960    3.7940 O.3       1 QUN        -0.3229
     17 C14        43.5960  -29.6970    4.7700 C.3       1 QUN         0.0585
     18 N2         42.3760  -35.8550    3.3560 N.pl3     1 QUN        -0.2966
     19 C15        42.9940  -35.5190    1.9830 C.3       1 QUN         0.0417
     20 C16        43.9280  -34.3130    2.0780 C.3       1 QUN        -0.0407
     21 C17        41.9070  -35.3260    1.0170 C.3       1 QUN        -0.0241
     22 C18        42.2820  -34.9680   -0.3890 C.3       1 QUN        -0.0103
     23 C19        40.9470  -34.8860   -0.9480 C.3       1 QUN        -0.0318
     24 N3         40.7170  -34.4950   -2.3570 N.4       1 QUN         0.2348
     25 C20        39.2470  -34.5690   -2.4480 C.3       1 QUN        -0.0348
     26 C21        41.3410  -35.3620   -3.4010 C.3       1 QUN        -0.0348
     27 C22        38.5020  -35.9590   -2.2620 C.3       1 QUN        -0.0245
     28 C23        41.0260  -34.7940   -4.8390 C.3       1 QUN        -0.0245
     29 H1         40.2784  -29.6482    5.2345 H         1 QUN         0.0634
     30 H2         38.5414  -31.3770    6.0281 H         1 QUN         0.0582
     31 H3         42.7543  -32.8700    3.4613 H         1 QUN         0.0545
     32 H4         36.9451  -36.1566    6.4084 H         1 QUN         0.0586
     33 H5         39.3030  -39.5516    4.6864 H         1 QUN         0.0583
     34 H6         41.0664  -37.9184    3.8438 H         1 QUN         0.0666
     35 H7         44.2935  -28.9602    4.3450 H         1 QUN         0.0576
     36 H8         44.1594  -30.5714    5.1278 H         1 QUN         0.0576
     37 H9         43.0507  -29.2432    5.6106 H         1 QUN         0.0576
     38 H10        42.8256  -36.6334    3.8588 H         1 QUN         0.1927
     39 H11        43.5952  -36.3789    1.6526 H         1 QUN         0.0569
     40 H12        44.3520  -34.0986    1.0859 H         1 QUN         0.0253
     41 H13        44.7416  -34.5341    2.7845 H         1 QUN         0.0253
     42 H14        43.3626  -33.4383    2.4319 H         1 QUN         0.0253
     43 H15        41.2647  -34.5199    1.4014 H         1 QUN         0.0290
     44 H16        41.3334  -36.2637    0.9757 H         1 QUN         0.0290
     45 H17        42.8862  -35.7514   -0.8700 H         1 QUN         0.0318
     46 H18        42.8153  -34.0075   -0.4448 H         1 QUN         0.0318
     47 H19        40.3975  -34.1594   -0.3316 H         1 QUN         0.0814
     48 H20        40.4988  -35.8832   -0.8265 H         1 QUN         0.0814
     49 H21        41.0401  -33.5514   -2.5029 H         1 QUN         0.2033
     50 H22        38.9727  -34.1943   -3.4451 H         1 QUN         0.0812
     51 H23        38.8481  -33.8912   -1.6790 H         1 QUN         0.0812
     52 H24        40.9366  -36.3814   -3.3162 H         1 QUN         0.0812
     53 H25        42.4303  -35.3859   -3.2502 H         1 QUN         0.0812
     54 H26        37.4169  -35.8100   -2.3641 H         1 QUN         0.0281
     55 H27        38.7241  -36.3634   -1.2634 H         1 QUN         0.0281
     56 H28        38.8487  -36.6665   -3.0296 H         1 QUN         0.0281
     57 H29        41.4904  -35.4404   -5.5983 H         1 QUN         0.0281
     58 H30        41.4309  -33.7751   -4.9276 H         1 QUN         0.0281
     59 H31        39.9372  -34.7706   -4.9936 H         1 QUN         0.0281
@<TRIPOS>BOND
     1    1    2 ar 
     2    1    6 ar 
     3    1   16 1  
     4    2    3 ar 
     5    3    4 ar 
     6    4    5 ar 
     7    4    7 ar 
     8    5    6 ar 
     9    5   10 ar 
    10    7    8 ar 
    11    8    9 ar 
    12    8   11 ar 
    13    9   10 ar 
    14    9   14 ar 
    15   10   18 1  
    16   11   12 ar 
    17   12   13 ar 
    18   12   15 1  
    19   13   14 ar 
    20   16   17 1  
    21   18   19 1  
    22   19   20 1  
    23   19   21 1  
    24   21   22 1  
    25   22   23 1  
    26   23   24 1  
    27   24   25 1  
    28   24   26 1  
    29   25   27 1  
    30   26   28 1  
    31    2   29 1  
    32    3   30 1  
    33    6   31 1  
    34   11   32 1  
    35   13   33 1  
    36   14   34 1  
    37   17   35 1  
    38   17   36 1  
    39   17   37 1  
    40   18   38 1  
    41   19   39 1  
    42   20   40 1  
    43   20   41 1  
    44   20   42 1  
    45   21   43 1  
    46   21   44 1  
    47   22   45 1  
    48   22   46 1  
    49   23   47 1  
    50   23   48 1  
    51   24   49 1  
    52   25   50 1  
    53   25   51 1  
    54   26   52 1  
    55   26   53 1  
    56   27   54 1  
    57   27   55 1  
    58   27   56 1  
    59   28   57 1  
    60   28   58 1  
    61   28   59 1  
@<TRIPOS>SUBSTRUCTURE
     1 QUN         1

