### 
### Created by X-TOOL on Mon Sep 10 21:12:49 2018
### 

@<TRIPOS>MOLECULE
1jqy_ligand
   63    65     1     0     0
SMALL
GAST_HUCK


@<TRIPOS>ATOM
      1 C1         50.2040    2.1310   -1.6490 C.3       1 A32         0.2097
      2 O1         50.4090    0.6840   -1.5200 O.3       1 A32        -0.2829
      3 C2         50.9120    3.0240   -0.5900 C.3       1 A32         0.1385
      4 O2         52.3400    3.0370   -0.6630 O.3       1 A32        -0.3837
      5 C3         50.4950    2.5360    0.8120 C.3       1 A32         0.1145
      6 O3         50.9900    3.4940    1.7290 O.3       1 A32        -0.3864
      7 C4         48.9310    2.6760    0.8520 C.3       1 A32         0.1119
      8 O4         48.5540    4.0360    0.9380 O.3       1 A32        -0.3865
      9 C5         48.2460    1.9190   -0.2960 C.3       1 A32         0.1134
     10 O5         48.7850    2.3660   -1.5640 O.3       1 A32        -0.3369
     11 C6         46.7090    2.0260   -0.3230 C.3       1 A32         0.0730
     12 O6         46.1300    1.0970   -1.2100 O.3       1 A32        -0.3924
     13 C1'        50.1220   -0.0160   -2.7540 C.ar      1 A32         0.1074
     14 C2'        50.9800    0.0950   -3.8470 C.ar      1 A32         0.0138
     15 C3'        50.6490   -0.6100   -5.0190 C.ar      1 A32         0.1967
     16 C4'        49.4520   -1.3980   -4.9680 C.ar      1 A32        -0.0099
     17 C5'        48.5990   -1.4910   -3.8490 C.ar      1 A32         0.0494
     18 C6'        48.9510   -0.7620   -2.6760 C.ar      1 A32        -0.0081
     19 N1'        51.3940   -0.6530   -6.2170 N.2       1 A32         0.3133
     20 O1'        50.8480   -1.3250   -7.1610 O.2       1 A32         0.1782
     21 O2'        52.5260   -0.1370   -6.3440 O.2       1 A32         0.1782
     22 C7'        47.3860   -2.2250   -3.7440 C.2       1 A32         0.2038
     23 O3'        46.9910   -2.3330   -2.5240 O.2       1 A32        -0.3846
     24 N2'        46.7440   -2.6570   -4.7090 N.am      1 A32        -0.2860
     25 O1'        48.1190   -8.6530   -4.0990 O.3       1 A32        -0.3693
     26 C2'        49.2480   -7.8630   -4.3650 C.3       1 A32         0.0878
     27 C3'        49.1440   -6.5630   -5.1240 C.3       1 A32        -0.0078
     28 N4'        47.8810   -6.2430   -5.8710 N.4       1 A32         0.2385
     29 C5'        46.8980   -7.3800   -5.8230 C.3       1 A32        -0.0078
     30 C6'        46.8440   -8.1320   -4.4960 C.3       1 A32         0.0878
     31 C7'        47.2470   -4.9070   -5.6470 C.3       1 A32        -0.0299
     32 C8'        47.3240   -3.8610   -6.7500 C.3       1 A32         0.0076
     33 C9'        46.8690   -2.5160   -6.1120 C.3       1 A32         0.0352
     34 H1         50.5684    2.4369   -2.6408 H         1 A32         0.0993
     35 H2         50.5599    4.0565   -0.7314 H         1 A32         0.0675
     36 H3         52.6716    2.1593   -0.5137 H         1 A32         0.2101
     37 H4         50.8418    1.5155    1.0315 H         1 A32         0.0648
     38 H5         51.9390    3.4536    1.7460 H         1 A32         0.2100
     39 H6         48.5920    2.1968    1.7823 H         1 A32         0.0647
     40 H7         49.0103    4.4446    1.6641 H         1 A32         0.2100
     41 H8         48.4939    0.8543   -0.1740 H         1 A32         0.0647
     42 H9         46.4293    3.0415   -0.6402 H         1 A32         0.0584
     43 H10        46.3222    1.8386    0.6896 H         1 A32         0.0584
     44 H11        46.4542    1.2555   -2.0888 H         1 A32         0.2095
     45 H12        51.8743    0.7054   -3.7957 H         1 A32         0.0648
     46 H13        49.1836   -1.9628   -5.8534 H         1 A32         0.0653
     47 H14        48.3435   -0.7875   -1.7786 H         1 A32         0.0635
     48 H15        45.9694   -3.2294   -4.4400 H         1 A32         0.1845
     49 H16        49.6905   -7.6168   -3.3885 H         1 A32         0.0613
     50 H17        49.9434   -8.4983   -4.9330 H         1 A32         0.0613
     51 H18        49.2989   -5.7536   -4.3954 H         1 A32         0.0837
     52 H19        49.9617   -6.5555   -5.8597 H         1 A32         0.0837
     53 H20        48.1775   -6.2028   -6.8336 H         1 A32         0.2035
     54 H21        47.1685   -8.0981   -6.6111 H         1 A32         0.0837
     55 H22        45.8962   -6.9734   -6.0255 H         1 A32         0.0837
     56 H23        46.4879   -7.4428   -3.7161 H         1 A32         0.0613
     57 H24        46.1379   -8.9695   -4.5955 H         1 A32         0.0613
     58 H25        46.1805   -5.0858   -5.4457 H         1 A32         0.0815
     59 H26        47.7204   -4.4708   -4.7550 H         1 A32         0.0815
     60 H27        48.3556   -3.7759   -7.1223 H         1 A32         0.0336
     61 H28        46.6559   -4.1336   -7.5802 H         1 A32         0.0336
     62 H29        47.6146   -1.7383   -6.3339 H         1 A32         0.0521
     63 H30        45.8969   -2.2236   -6.5357 H         1 A32         0.0521
@<TRIPOS>BOND
     1    1   10 1  
     2    1    3 1  
     3    1    2 1  
     4    2   13 1  
     5   13   18 ar 
     6   13   14 ar 
     7   14   15 ar 
     8   15   19 1  
     9   15   16 ar 
    10   16   17 ar 
    11   17   22 1  
    12   17   18 ar 
    13   22   24 am 
    14   22   23 2  
    15   24   33 1  
    16   33   32 1  
    17   32   31 1  
    18   31   28 1  
    19   28   29 1  
    20   28   27 1  
    21   27   26 1  
    22   26   25 1  
    23   25   30 1  
    24   30   29 1  
    25   19   21 2  
    26   19   20 2  
    27    3    5 1  
    28    3    4 1  
    29    5    7 1  
    30    5    6 1  
    31    7    9 1  
    32    7    8 1  
    33    9   11 1  
    34    9   10 1  
    35   11   12 1  
    36    1   34 1  
    37    3   35 1  
    38    4   36 1  
    39    5   37 1  
    40    6   38 1  
    41    7   39 1  
    42    8   40 1  
    43    9   41 1  
    44   11   42 1  
    45   11   43 1  
    46   12   44 1  
    47   14   45 1  
    48   16   46 1  
    49   18   47 1  
    50   24   48 1  
    51   26   49 1  
    52   26   50 1  
    53   27   51 1  
    54   27   52 1  
    55   28   53 1  
    56   29   54 1  
    57   29   55 1  
    58   30   56 1  
    59   30   57 1  
    60   31   58 1  
    61   31   59 1  
    62   32   60 1  
    63   32   61 1  
    64   33   62 1  
    65   33   63 1  
@<TRIPOS>SUBSTRUCTURE
     1 A32         1

