### 
### Created by X-TOOL on Mon Sep 10 21:12:48 2018
### 

@<TRIPOS>MOLECULE
1jr1_ligand
   42    43     1     0     0
SMALL
GAST_HUCK


@<TRIPOS>ATOM
      1 C1         65.4650   77.9460   82.6750 C.2       1 MOA         0.2434
      2 C2         64.9650   82.3900   86.1740 C.2       1 MOA        -0.1022
      3 C3         65.1840   83.6670   86.5070 C.2       1 MOA        -0.0809
      4 C4         64.2870   84.7070   85.8680 C.3       1 MOA        -0.0167
      5 C5         65.1370   85.5900   84.9630 C.3       1 MOA         0.0086
      6 C6         65.2530   85.0450   83.5560 C.2       1 MOA         0.0367
      7 C7         69.7740   80.1380   83.5320 C.3       1 MOA        -0.0409
      8 C8         68.4340   82.9550   84.9680 C.3       1 MOA         0.0570
      9 C9         66.2890   84.1040   87.4630 C.3       1 MOA        -0.0399
     10 C10        67.7520   78.1120   82.1030 C.3       1 MOA         0.1030
     11 C11        67.4530   79.0770   83.2290 C.ar      1 MOA        -0.0116
     12 C12        68.3290   79.9770   83.9000 C.ar      1 MOA        -0.0226
     13 C13        67.7890   80.7240   84.9530 C.ar      1 MOA         0.0868
     14 C14        66.4470   80.5640   85.3340 C.ar      1 MOA         0.0127
     15 C15        65.5990   79.6820   84.6580 C.ar      1 MOA         0.0929
     16 C16        66.1280   78.9430   83.5880 C.ar      1 MOA         0.0713
     17 C17        65.9220   81.2770   86.5480 C.3       1 MOA        -0.0208
     18 O1         64.3260   77.6140   82.5880 O.2       1 MOA        -0.3726
     19 O2         66.4440   77.4740   81.8970 O.3       1 MOA        -0.2704
     20 O3         68.5890   81.6440   85.5490 O.3       1 MOA        -0.3293
     21 O4         64.2880   79.5520   85.1000 O.3       1 MOA        -0.3395
     22 O5         64.2030   84.7050   82.9660 O.co2     1 MOA        -0.5688
     23 O6         66.3930   84.9550   83.0450 O.co2     1 MOA        -0.5688
     24 H1         64.0652   82.1414   85.6132 H         1 MOA         0.0254
     25 H2         63.8163   85.3214   86.6496 H         1 MOA         0.0430
     26 H3         63.5068   84.2090   85.2736 H         1 MOA         0.0430
     27 H4         66.1459   85.6679   85.3943 H         1 MOA         0.0452
     28 H5         64.6799   86.5894   84.9165 H         1 MOA         0.0452
     29 H6         70.0135   79.4744   82.6881 H         1 MOA         0.0332
     30 H7         70.4036   79.8755   84.3950 H         1 MOA         0.0332
     31 H8         69.9647   81.1821   83.2430 H         1 MOA         0.0332
     32 H9         69.0996   83.6646   85.4813 H         1 MOA         0.0574
     33 H10        67.3905   83.2846   85.0798 H         1 MOA         0.0574
     34 H11        68.6937   82.9158   83.8998 H         1 MOA         0.0574
     35 H12        66.8322   83.2185   87.8248 H         1 MOA         0.0377
     36 H13        65.8455   84.6364   88.3173 H         1 MOA         0.0377
     37 H14        66.9864   84.7721   86.9365 H         1 MOA         0.0377
     38 H15        68.5143   77.3760   82.3983 H         1 MOA         0.0759
     39 H16        68.0854   78.6426   81.1989 H         1 MOA         0.0759
     40 H17        65.3946   80.5529   87.1864 H         1 MOA         0.0442
     41 H18        66.7689   81.7066   87.1031 H         1 MOA         0.0442
     42 H19        63.6932   79.7691   84.3918 H         1 MOA         0.2460
@<TRIPOS>BOND
     1   16    1 1  
     2    1   18 2  
     3    1   19 1  
     4    2    3 2  
     5   17    2 1  
     6    3    4 1  
     7    3    9 1  
     8    4    5 1  
     9    5    6 1  
    10    6   22 ar 
    11    6   23 ar 
    12   12    7 1  
    13   20    8 1  
    14   11   10 1  
    15   10   19 1  
    16   12   11 ar 
    17   11   16 ar 
    18   13   12 ar 
    19   14   13 ar 
    20   13   20 1  
    21   14   15 ar 
    22   14   17 1  
    23   15   16 ar 
    24   15   21 1  
    25    2   24 1  
    26    4   25 1  
    27    4   26 1  
    28    5   27 1  
    29    5   28 1  
    30    7   29 1  
    31    7   30 1  
    32    7   31 1  
    33    8   32 1  
    34    8   33 1  
    35    8   34 1  
    36    9   35 1  
    37    9   36 1  
    38    9   37 1  
    39   10   38 1  
    40   10   39 1  
    41   17   40 1  
    42   17   41 1  
    43   21   42 1  
@<TRIPOS>SUBSTRUCTURE
     1 MOA         1

