### 
### Created by X-TOOL on Mon Sep 10 21:12:45 2018
### 

@<TRIPOS>MOLECULE
1jrs_ligand
   71    70     1     0     0
SMALL
GAST_HUCK


@<TRIPOS>ATOM
      1 C          55.5410  -13.8830    9.6830 C.2       1 ACE         0.1751
      2 O          56.0310  -12.9620    9.0020 O.2       1 ACE        -0.3972
      3 CH3        55.7130  -15.3410    9.2730 C.3       1 ACE         0.0258
      4 N          54.7470  -13.6880   10.7460 N.am      1 LEU        -0.2658
      5 CA         54.5780  -12.3540   11.2730 C.3       1 LEU         0.1311
      6 C          55.4570  -12.2720   12.5000 C.2       1 LEU         0.2039
      7 O          56.2130  -11.3200   12.6310 O.2       1 LEU        -0.3944
      8 CB         53.1410  -12.0310   11.6780 C.3       1 LEU        -0.0101
      9 CG         52.1010  -11.7480   10.5830 C.3       1 LEU        -0.0425
     10 CD1        50.8980  -11.1130   11.2610 C.3       1 LEU        -0.0625
     11 CD2        52.6050  -10.7660    9.5230 C.3       1 LEU        -0.0625
     12 H1         55.2078  -15.9895   10.0040 H         1 ACE         0.0467
     13 N          55.3950  -13.2900   13.3740 N.am      1 LEU        -0.2637
     14 CA         56.1860  -13.3330   14.6030 C.3       1 LEU         0.1311
     15 C          57.6810  -13.3860   14.3570 C.2       1 LEU         0.2020
     16 O          58.1760  -14.1670   13.5250 O.2       1 LEU        -0.3945
     17 CB         55.8250  -14.5600   15.4670 C.3       1 LEU        -0.0101
     18 CG         54.5730  -14.5940   16.3500 C.3       1 LEU        -0.0425
     19 CD1        53.3110  -14.4210   15.5080 C.3       1 LEU        -0.0625
     20 CD2        54.5100  -15.9360   17.0720 C.3       1 LEU        -0.0625
     21 H2         56.7842  -15.5891    9.2414 H         1 ACE         0.0467
     22 N          58.3970  -12.5860   15.1320 N.am      1 AR7        -0.2798
     23 CA         59.8310  -12.5560   15.0430 C.3       1 AR7         0.0652
     24 C          60.4540  -13.3230   16.2390 C.3       1 AR7         0.0671
     25 O          59.5220  -14.3590   16.5860 O.3       1 AR7        -0.3927
     26 CB         60.2350  -11.0850   14.9760 C.3       1 AR7        -0.0246
     27 CG         59.7910  -10.5330   13.6570 C.3       1 AR7        -0.0176
     28 CD         60.2070   -9.0900   13.4780 C.3       1 AR7         0.0626
     29 NE         59.7380   -8.6660   12.1600 N.pl3     1 AR7        -0.2723
     30 CZ         59.9470   -7.4350   11.6560 C.cat     1 AR7         0.2882
     31 NH1        60.6380   -6.5380   12.3660 N.pl3     1 AR7        -0.2849
     32 NH2        59.4790   -7.0900   10.4370 N.pl3     1 AR7        -0.2849
     33 H3         55.2711  -15.4966    8.2778 H         1 ACE         0.0467
     34 H4         54.2753  -14.4607   11.1707 H         1 LEU         0.1882
     35 H5         54.9059  -11.6225   10.5198 H         1 LEU         0.0800
     36 H6         53.1807  -11.1400   12.3219 H         1 LEU         0.0315
     37 H7         52.7704  -12.8878   12.2599 H         1 LEU         0.0315
     38 H8         51.8152  -12.6927   10.0974 H         1 LEU         0.0298
     39 H9         50.1264  -10.8936   10.5083 H         1 LEU         0.0232
     40 H10        51.2055  -10.1789   11.7539 H         1 LEU         0.0232
     41 H11        50.4914  -11.8069   12.0114 H         1 LEU         0.0232
     42 H12        53.4787  -11.1957    9.0110 H         1 LEU         0.0232
     43 H13        52.8916   -9.8202   10.0060 H         1 LEU         0.0232
     44 H14        51.8071  -10.5763    8.7899 H         1 LEU         0.0232
     45 H15        54.7800  -14.0531   13.1752 H         1 LEU         0.1883
     46 H16        55.9607  -12.4200   15.1736 H         1 LEU         0.0800
     47 H17        56.6799  -14.7249   16.1393 H         1 LEU         0.0315
     48 H18        55.7350  -15.4088   14.7732 H         1 LEU         0.0315
     49 H19        54.6291  -13.7810   17.0888 H         1 LEU         0.0298
     50 H20        52.4271  -14.4487   16.1622 H         1 LEU         0.0232
     51 H21        53.2474  -15.2352   14.7711 H         1 LEU         0.0232
     52 H22        53.3493  -13.4545   14.9842 H         1 LEU         0.0232
     53 H23        55.4165  -16.0676   17.6810 H         1 LEU         0.0232
     54 H24        54.4442  -16.7476   16.3324 H         1 LEU         0.0232
     55 H25        53.6240  -15.9607   17.7234 H         1 LEU         0.0232
     56 H26        57.9324  -11.9932   15.7898 H         1 AR7         0.1855
     57 H27        60.1515  -13.0525   14.1153 H         1 AR7         0.0579
     58 H28        60.6020  -12.6434   17.0912 H         1 AR7         0.0580
     59 H29        61.4197  -13.7620   15.9480 H         1 AR7         0.0580
     60 H30        58.6908  -13.9677   16.8280 H         1 AR7         0.2095
     61 H31        61.3275  -10.9951   15.0676 H         1 AR7         0.0289
     62 H32        59.7516  -10.5293   15.7930 H         1 AR7         0.0289
     63 H33        58.6945  -10.5966   13.5963 H         1 AR7         0.0300
     64 H34        60.2384  -11.1341   12.8517 H         1 AR7         0.0300
     65 H35        61.3022   -9.0036   13.5342 H         1 AR7         0.0689
     66 H36        59.7493   -8.4659   14.2597 H         1 AR7         0.0689
     67 H37        59.2195   -9.3458   11.5856 H         1 AR7         0.2642
     68 H38        60.8009   -5.5949   11.9854 H         1 AR7         0.2615
     69 H39        61.0077   -6.7898   13.2938 H         1 AR7         0.2615
     70 H40        58.9449   -7.7711    9.8787 H         1 AR7         0.2615
     71 H41        59.6562   -6.1458   10.0656 H         1 AR7         0.2615
@<TRIPOS>BOND
     1    1    2 2  
     2    1    3 1  
     3    1    4 am 
     4    4    5 1  
     5    3   12 1  
     6    5    6 1  
     7    5    8 1  
     8    6    7 2  
     9    6   13 am 
    10    8    9 1  
    11    9   10 1  
    12    9   11 1  
    13   13   14 1  
    14    3   21 1  
    15   14   15 1  
    16   14   17 1  
    17   15   16 2  
    18   15   22 am 
    19   17   18 1  
    20   18   19 1  
    21   18   20 1  
    22   22   23 1  
    23    3   33 1  
    24   23   24 1  
    25   23   26 1  
    26   24   25 1  
    27    4   34 1  
    28   26   27 1  
    29   27   28 1  
    30   28   29 1  
    31   29   30 ar 
    32    5   35 1  
    33   30   31 ar 
    34   30   32 ar 
    35    8   36 1  
    36    8   37 1  
    37    9   38 1  
    38   10   39 1  
    39   10   40 1  
    40   10   41 1  
    41   11   42 1  
    42   11   43 1  
    43   11   44 1  
    44   13   45 1  
    45   14   46 1  
    46   17   47 1  
    47   17   48 1  
    48   18   49 1  
    49   19   50 1  
    50   19   51 1  
    51   19   52 1  
    52   20   53 1  
    53   20   54 1  
    54   20   55 1  
    55   22   56 1  
    56   23   57 1  
    57   24   58 1  
    58   24   59 1  
    59   25   60 1  
    60   26   61 1  
    61   26   62 1  
    62   27   63 1  
    63   27   64 1  
    64   28   65 1  
    65   28   66 1  
    66   29   67 1  
    67   31   68 1  
    68   31   69 1  
    69   32   70 1  
    70   32   71 1  
@<TRIPOS>SUBSTRUCTURE
     1 ACE         1

