### 
### Created by X-TOOL on Mon Sep 10 21:12:48 2018
### 

@<TRIPOS>MOLECULE
1jsv_ligand
   29    30     1     0     0
SMALL
GAST_HUCK


@<TRIPOS>ATOM
      1 N17        14.2130    8.6870   24.6230 N.pl3     1 U55        -0.3186
      2 C11        13.4030    9.5650   23.9370 C.ar      1 U55         0.1114
      3 N12        13.7080    9.8330   22.6380 N.ar      1 U55        -0.2688
      4 C13        12.8280   10.6440   21.9280 C.ar      1 U55         0.0582
      5 N14        11.7900   11.2960   22.4730 N.ar      1 U55        -0.2658
      6 C16        12.2500   10.1510   24.5330 C.ar      1 U55         0.0257
      7 C15        11.4710   11.0590   23.8010 C.ar      1 U55         0.1328
      8 N18        10.4610   11.7520   24.3080 N.pl3     1 U55        -0.2572
      9 C01         9.6680   11.5140   25.3580 C.ar      1 U55         0.0634
     10 C06         8.8140   12.5290   25.8590 C.ar      1 U55        -0.0366
     11 C05         8.0310   12.3130   27.0080 C.ar      1 U55        -0.0449
     12 C02         9.6380   10.2460   25.9770 C.ar      1 U55        -0.0366
     13 C03         8.8770   10.0340   27.1320 C.ar      1 U55        -0.0449
     14 C04         8.0690   11.0510   27.6560 C.ar      1 U55         0.0962
     15 S07         6.8790   10.6850   28.8500 S.o2      1 U55         0.0607
     16 O08         5.9160    9.7910   28.2910 O.2       1 U55        -0.1520
     17 O09         6.1970   11.9810   29.1600 O.2       1 U55        -0.1520
     18 N10         7.4650   10.1110   30.2190 N.am      1 U55        -0.2622
     19 H1         14.0109    8.4618   25.6076 H         1 U55         0.1797
     20 H2         15.0207    8.2557   24.1514 H         1 U55         0.1797
     21 H3         12.9923   10.7565   20.8625 H         1 U55         0.1046
     22 H4         11.9751    9.8959   25.5500 H         1 U55         0.0565
     23 H5         10.2504   12.6261   23.8055 H         1 U55         0.2152
     24 H6          8.7636   13.4846   25.3498 H         1 U55         0.0536
     25 H7          7.4022   13.1062   27.3961 H         1 U55         0.0607
     26 H8         10.2100    9.4284   25.5536 H         1 U55         0.0536
     27 H9          8.9133    9.0705   27.6274 H         1 U55         0.0607
     28 H10         6.8456    9.8718   30.9667 H         1 U55         0.1633
     29 H11         8.4516    9.9905   30.3291 H         1 U55         0.1633
@<TRIPOS>BOND
     1    1    2 1  
     2    2    3 ar 
     3    2    6 ar 
     4    3    4 ar 
     5    4    5 ar 
     6    5    7 ar 
     7    6    7 ar 
     8    7    8 1  
     9    8    9 1  
    10    9   10 ar 
    11    9   12 ar 
    12   10   11 ar 
    13   11   14 ar 
    14   12   13 ar 
    15   13   14 ar 
    16   14   15 1  
    17   15   16 2  
    18   15   17 2  
    19   15   18 am 
    20    1   19 1  
    21    1   20 1  
    22    4   21 1  
    23    6   22 1  
    24    8   23 1  
    25   10   24 1  
    26   11   25 1  
    27   12   26 1  
    28   13   27 1  
    29   18   28 1  
    30   18   29 1  
@<TRIPOS>SUBSTRUCTURE
     1 U55         1

