### 
### Created by X-TOOL on Mon Sep 10 21:12:49 2018
### 

@<TRIPOS>MOLECULE
1jt1_ligand
   28    28     1     0     0
SMALL
GAST_HUCK


@<TRIPOS>ATOM
      1 O2          5.3330   -5.8560   21.0830 O.co2     1 MCO        -0.5666
      2 C9          5.5950   -6.0160   19.8710 C.2       1 MCO         0.0603
      3 O3          4.7630   -6.2200   18.9810 O.co2     1 MCO        -0.5666
      4 C8          7.0410   -6.1420   19.4860 C.3       1 MCO         0.0971
      5 C7          7.2810   -7.4370   18.7230 C.3       1 MCO        -0.0159
      6 C6          8.5890   -7.1950   18.0110 C.3       1 MCO        -0.0288
      7 C5          8.4920   -5.7250   17.6040 C.3       1 MCO         0.0362
      8 N           7.8740   -5.0940   18.7700 N.am      1 MCO        -0.2572
      9 C4          7.8930   -3.7300   18.9410 C.2       1 MCO         0.1838
     10 O1          6.9850   -3.1660   19.5260 O.2       1 MCO        -0.3964
     11 C2          9.0070   -2.9050   18.1980 C.3       1 MCO         0.0548
     12 C3          8.6750   -2.6310   16.7600 C.3       1 MCO        -0.0446
     13 C1          9.4530   -1.6280   18.9340 C.3       1 MCO         0.0101
     14 S          11.1410   -1.0070   18.4700 S.3       1 MCO        -0.1756
     15 H1          7.5413   -6.2491   20.4597 H         1 MCO         0.0728
     16 H2          6.4710   -7.6238   18.0026 H         1 MCO         0.0306
     17 H3          7.3619   -8.2897   19.4131 H         1 MCO         0.0306
     18 H4          8.6846   -7.8441   17.1281 H         1 MCO         0.0286
     19 H5          9.4426   -7.3633   18.6841 H         1 MCO         0.0286
     20 H6          7.8622   -5.6041   16.7103 H         1 MCO         0.0524
     21 H7          9.4891   -5.3031   17.4097 H         1 MCO         0.0524
     22 H8          9.8907   -3.5598   18.1822 H         1 MCO         0.0543
     23 H9          9.4899   -2.0534   16.2992 H         1 MCO         0.0257
     24 H10         7.7396   -2.0550   16.7029 H         1 MCO         0.0257
     25 H11         8.5523   -3.5837   16.2240 H         1 MCO         0.0257
     26 H12         9.4510   -1.8376   20.0138 H         1 MCO         0.0401
     27 H13         8.7243   -0.8341   18.7132 H         1 MCO         0.0401
     28 H14        11.1609   -0.7959   17.4845 H         1 MCO         0.1018
@<TRIPOS>BOND
     1    1    2 ar 
     2    2    3 ar 
     3    2    4 1  
     4    4    5 1  
     5    4    8 1  
     6    5    6 1  
     7    6    7 1  
     8    7    8 1  
     9    8    9 am 
    10    9   10 2  
    11    9   11 1  
    12   11   12 1  
    13   11   13 1  
    14   13   14 1  
    15    4   15 1  
    16    5   16 1  
    17    5   17 1  
    18    6   18 1  
    19    6   19 1  
    20    7   20 1  
    21    7   21 1  
    22   11   22 1  
    23   12   23 1  
    24   12   24 1  
    25   12   25 1  
    26   13   26 1  
    27   13   27 1  
    28   14   28 1  
@<TRIPOS>SUBSTRUCTURE
     1 MCO         1

