### 
### Created by X-TOOL on Mon Sep 10 21:12:48 2018
### 

@<TRIPOS>MOLECULE
1jtq_ligand
   53    56     1     0     0
SMALL
GAST_HUCK


@<TRIPOS>ATOM
      1 N1         13.8790   19.2360   32.6030 N.am      1 LY3        -0.1858
      2 C1         13.0380   19.3160   31.5440 C.2       1 LY3         0.2318
      3 N2         13.1360   18.5310   30.5410 N.2       1 LY3        -0.2823
      4 C2         14.2390   17.5570   30.5340 C.2       1 LY3         0.0867
      5 C3         15.0590   17.4380   31.5730 C.2       1 LY3         0.0376
      6 C4         14.9550   18.3880   32.7430 C.2       1 LY3         0.2015
      7 N3         14.6400   16.5220   29.5780 N.pl3     1 LY3        -0.2940
      8 C5         15.8020   15.8320   30.1380 C.2       1 LY3         0.0015
      9 C6         16.0970   16.3780   31.3270 C.2       1 LY3        -0.0590
     10 C7         17.1940   15.9880   32.2840 C.3       1 LY3        -0.0290
     11 C8         17.1840   14.4810   32.5540 C.3       1 LY3        -0.0124
     12 C9         16.1150   14.1800   33.5690 C.ar      1 LY3        -0.0370
     13 C10        16.3010   14.4480   34.9660 C.ar      1 LY3        -0.0543
     14 C11        15.2540   14.1510   35.9060 C.ar      1 LY3        -0.0485
     15 C12        14.0320   13.5890   35.4220 C.ar      1 LY3         0.0428
     16 C13        13.8690   13.3300   34.0370 C.ar      1 LY3        -0.0485
     17 C14        14.9000   13.6240   33.1220 C.ar      1 LY3        -0.0543
     18 C15        12.8560   13.2220   36.3290 C.2       1 LY3         0.2016
     19 O1         15.6720   18.3530   33.7100 O.2       1 LY3        -0.4095
     20 N4         11.9840   20.3260   31.6320 N.pl3     1 LY3        -0.2816
     21 C16        11.9860   12.4410   38.4090 C.3       1 LY3         0.0963
     22 C17        11.6470   10.9450   38.3070 C.3       1 LY3        -0.0002
     23 C18        12.1200   12.8240   39.8480 C.2       1 LY3         0.0602
     24 O2         13.5520   13.0040   40.2030 O.co2     1 LY3        -0.5666
     25 O3         11.1950   12.8940   40.6210 O.co2     1 LY3        -0.5666
     26 N5         13.1450   12.7960   37.6010 N.am      1 LY3        -0.2715
     27 O4         11.7130   13.2830   35.9400 O.2       1 LY3        -0.3877
     28 C19        12.0270   10.1820   39.5830 C.3       1 LY3         0.0380
     29 C20        12.7820    8.9690   39.1780 C.2       1 LY3         0.1628
     30 N6         13.7680    8.9940   38.1220 N.pl3     1 LY3        -0.1518
     31 N7         14.1150    7.7910   38.1420 N.2       1 LY3        -0.0730
     32 N8         13.4870    7.0070   39.0580 N.2       1 LY3        -0.1532
     33 N9         12.6340    7.8400   39.6990 N.2       1 LY3        -0.2226
     34 H1         13.6993   19.8591   33.3642 H         1 LY3         0.2506
     35 H2         14.1865   16.3174   28.6761 H         1 LY3         0.2252
     36 H3         16.3392   15.0101   29.6669 H         1 LY3         0.0605
     37 H4         17.0487   16.5235   33.2338 H         1 LY3         0.0378
     38 H5         18.1651   16.2682   31.8499 H         1 LY3         0.0378
     39 H6         18.1637   14.1684   32.9445 H         1 LY3         0.0451
     40 H7         16.9713   13.9391   31.6207 H         1 LY3         0.0451
     41 H8         17.2341   14.8759   35.3143 H         1 LY3         0.0570
     42 H9         15.3891   14.3498   36.9630 H         1 LY3         0.0652
     43 H10        12.9405   12.9009   33.6780 H         1 LY3         0.0652
     44 H11        14.7571   13.4209   32.0668 H         1 LY3         0.0570
     45 H12        11.3118   20.4375   30.8596 H         1 LY3         0.1893
     46 H13        11.9139   20.9258   32.4664 H         1 LY3         0.1893
     47 H14        11.1325   13.0023   38.0010 H         1 LY3         0.0727
     48 H15        12.1969   10.5132   37.4578 H         1 LY3         0.0336
     49 H16        10.5657   10.8365   38.1370 H         1 LY3         0.0336
     50 H17        14.0810   12.7339   37.9474 H         1 LY3         0.1867
     51 H18        11.1180    9.8917   40.1303 H         1 LY3         0.0530
     52 H19        12.6550   10.8166   40.2256 H         1 LY3         0.0530
     53 H20        14.0902    9.7716   37.5283 H         1 LY3         0.2709
@<TRIPOS>BOND
     1    1    2 am 
     2    6    1 am 
     3    3    2 2  
     4    2   20 1  
     5    4    3 1  
     6    5    4 2  
     7    7    4 1  
     8    5    6 1  
     9    9    5 1  
    10    6   19 2  
    11    8    7 1  
    12    9    8 2  
    13   10    9 1  
    14   11   10 1  
    15   12   11 1  
    16   13   12 ar 
    17   17   12 ar 
    18   14   13 ar 
    19   15   14 ar 
    20   15   16 ar 
    21   18   15 1  
    22   16   17 ar 
    23   26   18 am 
    24   18   27 2  
    25   21   22 1  
    26   21   23 1  
    27   21   26 1  
    28   22   28 1  
    29   23   24 ar 
    30   23   25 ar 
    31   28   29 1  
    32   29   30 1  
    33   29   33 2  
    34   30   31 1  
    35   31   32 2  
    36   32   33 1  
    37    1   34 1  
    38    7   35 1  
    39    8   36 1  
    40   10   37 1  
    41   10   38 1  
    42   11   39 1  
    43   11   40 1  
    44   13   41 1  
    45   14   42 1  
    46   16   43 1  
    47   17   44 1  
    48   20   45 1  
    49   20   46 1  
    50   21   47 1  
    51   22   48 1  
    52   22   49 1  
    53   26   50 1  
    54   28   51 1  
    55   28   52 1  
    56   30   53 1  
@<TRIPOS>SUBSTRUCTURE
     1 LY3         1

