### 
### Created by X-TOOL on Mon Sep 10 21:12:48 2018
### 

@<TRIPOS>MOLECULE
1juj_ligand
   50    52     1     0     0
SMALL
GAST_HUCK


@<TRIPOS>ATOM
      1 C1        -43.2240  -49.5530    3.6100 C.ar      1 LYA        -0.0370
      2 C2        -41.8100  -49.5780    3.4990 C.ar      1 LYA        -0.0543
      3 C3        -41.0650  -48.3700    3.6010 C.ar      1 LYA        -0.0485
      4 C4        -41.7200  -47.1000    3.8230 C.ar      1 LYA         0.0428
      5 C5        -43.1380  -47.1140    3.9270 C.ar      1 LYA        -0.0485
      6 C6        -43.8790  -48.3100    3.8270 C.ar      1 LYA        -0.0543
      7 C7        -44.0360  -50.8660    3.5120 C.3       1 LYA        -0.0124
      8 C8        -44.7080  -51.1660    2.1410 C.3       1 LYA        -0.0290
      9 C9        -46.0890  -50.5260    2.0040 C.2       1 LYA        -0.0590
     10 C10       -47.1920  -50.7660    2.8260 C.2       1 LYA         0.0015
     11 N11       -48.2910  -50.0040    2.4180 N.pl3     1 LYA        -0.2940
     12 C12       -47.8810  -49.2770    1.3280 C.2       1 LYA         0.0867
     13 C13       -46.5220  -49.6080    1.0780 C.2       1 LYA         0.0376
     14 C14       -45.8010  -48.9190   -0.1210 C.2       1 LYA         0.2015
     15 O15       -44.6450  -49.1200   -0.4390 O.2       1 LYA        -0.4095
     16 N16       -46.5480  -48.0350   -0.8460 N.am      1 LYA        -0.1858
     17 C17       -47.9280  -47.7410   -0.5350 C.2       1 LYA         0.2318
     18 N18       -48.5370  -48.3140    0.4620 N.2       1 LYA        -0.2823
     19 N19       -48.6050  -46.8440   -1.3060 N.pl3     1 LYA        -0.2816
     20 C20       -41.0100  -45.7490    3.9590 C.2       1 LYA         0.2016
     21 O21       -41.6630  -44.7190    4.1540 O.2       1 LYA        -0.3877
     22 N22       -39.6680  -45.7370    3.8750 N.am      1 LYA        -0.2716
     23 C23       -38.7770  -44.5470    4.0060 C.3       1 LYA         0.0953
     24 C24       -38.0680  -44.4820    5.3950 C.3       1 LYA        -0.0064
     25 C25       -38.9820  -44.2170    6.6360 C.3       1 LYA         0.0038
     26 C26       -38.3050  -44.1650    8.0130 C.2       1 LYA         0.0350
     27 O27       -37.1980  -43.5880    8.1380 O.co2     1 LYA        -0.5690
     28 O28       -38.8800  -44.7040    8.9860 O.co2     1 LYA        -0.5690
     29 C29       -37.7740  -44.5180    2.7860 C.2       1 LYA         0.0601
     30 O30       -37.5120  -43.4480    2.1570 O.co2     1 LYA        -0.5666
     31 O31       -37.2190  -45.6100    2.4630 O.co2     1 LYA        -0.5666
     32 H1        -41.2964  -50.5186    3.3363 H         1 LYA         0.0570
     33 H2        -39.9853  -48.4024    3.5105 H         1 LYA         0.0652
     34 H3        -43.6640  -46.1799    4.0875 H         1 LYA         0.0652
     35 H4        -44.9589  -48.2811    3.9165 H         1 LYA         0.0570
     36 H5        -44.8304  -50.8252    4.2717 H         1 LYA         0.0451
     37 H6        -43.3539  -51.6986    3.7391 H         1 LYA         0.0451
     38 H7        -44.8136  -52.2555    2.0326 H         1 LYA         0.0378
     39 H8        -44.0606  -50.7789    1.3404 H         1 LYA         0.0378
     40 H9        -47.1957  -51.4536    3.6705 H         1 LYA         0.0605
     41 H10       -49.2256  -49.9907    2.8507 H         1 LYA         0.2252
     42 H11       -46.1225  -47.5724   -1.6238 H         1 LYA         0.2506
     43 H12       -49.5892  -46.6243   -1.0965 H         1 LYA         0.1893
     44 H13       -48.1324  -46.3858   -2.0982 H         1 LYA         0.1893
     45 H14       -39.2211  -46.6158    3.7075 H         1 LYA         0.1866
     46 H15       -39.4091  -43.6498    3.9321 H         1 LYA         0.0726
     47 H16       -37.3221  -43.6747    5.3515 H         1 LYA         0.0323
     48 H17       -37.5586  -45.4437    5.5550 H         1 LYA         0.0323
     49 H18       -39.7350  -45.0182    6.6685 H         1 LYA         0.0432
     50 H19       -39.4819  -43.2501    6.4773 H         1 LYA         0.0432
@<TRIPOS>BOND
     1    1    2 ar 
     2    1    6 ar 
     3    1    7 1  
     4    2    3 ar 
     5    3    4 ar 
     6    4    5 ar 
     7    4   20 1  
     8    5    6 ar 
     9    7    8 1  
    10    8    9 1  
    11    9   10 2  
    12    9   13 1  
    13   10   11 1  
    14   11   12 1  
    15   12   13 2  
    16   12   18 1  
    17   13   14 1  
    18   14   15 2  
    19   14   16 am 
    20   16   17 1  
    21   17   18 2  
    22   17   19 1  
    23   20   21 2  
    24   20   22 am 
    25   22   23 1  
    26   23   24 1  
    27   23   29 1  
    28   24   25 1  
    29   25   26 1  
    30   26   27 ar 
    31   26   28 ar 
    32   29   30 ar 
    33   29   31 ar 
    34    2   32 1  
    35    3   33 1  
    36    5   34 1  
    37    6   35 1  
    38    7   36 1  
    39    7   37 1  
    40    8   38 1  
    41    8   39 1  
    42   10   40 1  
    43   11   41 1  
    44   16   42 1  
    45   19   43 1  
    46   19   44 1  
    47   22   45 1  
    48   23   46 1  
    49   24   47 1  
    50   24   48 1  
    51   25   49 1  
    52   25   50 1  
@<TRIPOS>SUBSTRUCTURE
     1 LYA         1

