### 
### Created by X-TOOL on Mon Sep 10 21:12:49 2018
### 

@<TRIPOS>MOLECULE
1juq_ligand
   82    82     1     0     0
SMALL
GAST_HUCK


@<TRIPOS>ATOM
      1 N          39.3150   15.9840   58.2230 N.4       1 ASP         0.2391
      2 CA         39.3480   15.1040   57.0560 C.3       1 ASP         0.0764
      3 C          40.6320   14.2830   57.0740 C.2       1 ASP         0.2285
      4 O          41.6230   14.6830   57.6910 O.2       1 ASP        -0.3906
      5 CB         39.2940   15.9270   55.7610 C.3       1 ASP         0.0607
      6 CG         39.0290   15.0730   54.5310 C.2       1 ASP         0.0425
      7 OD1        38.5680   13.9220   54.6850 O.co2     1 ASP        -0.5686
      8 OD2        39.2690   15.5590   53.4060 O.co2     1 ASP        -0.5686
      9 N          40.6110   13.1400   56.3930 N.am      1 ASP        -0.2594
     10 CA         41.7770   12.2670   56.3300 C.3       1 ASP         0.1424
     11 C          42.4170   12.2480   54.9450 C.2       1 ASP         0.2057
     12 O          42.2310   13.1710   54.1480 O.2       1 ASP        -0.3943
     13 CB         41.3950   10.8420   56.7360 C.3       1 ASP         0.0406
     14 CG         40.1120   10.3770   56.0830 C.2       1 ASP         0.0393
     15 OD1        39.0260   10.7960   56.5430 O.co2     1 ASP        -0.5688
     16 OD2        40.1940    9.6020   55.1060 O.co2     1 ASP        -0.5688
     17 N          43.1730   11.1880   54.6710 N.am      1 HIS        -0.2618
     18 CA         43.8620   11.0330   53.3950 C.3       1 HIS         0.1421
     19 C          43.1120   10.0990   52.4540 C.2       1 HIS         0.2060
     20 O          42.1940    9.3880   52.8640 O.2       1 HIS        -0.3942
     21 CB         45.2720   10.4840   53.6270 C.3       1 HIS         0.0427
     22 CG         46.1090   11.3290   54.5360 C.2       1 HIS         0.0561
     23 ND1        46.4120   12.6460   54.2610 N.pl3     1 HIS        -0.2623
     24 CD2        46.7080   11.0440   55.7170 C.2       1 HIS        -0.0276
     25 CE1        47.1610   13.1360   55.2330 C.2       1 HIS         0.0875
     26 NE2        47.3550   12.1850   56.1290 N.2       1 HIS        -0.3437
     27 N          43.5190   10.1060   51.1870 N.am      1 LEU        -0.2636
     28 CA         42.9060    9.2580   50.1690 C.3       1 LEU         0.1312
     29 C          43.3330    7.8060   50.3890 C.2       1 LEU         0.2040
     30 O          44.4690    7.5450   50.7950 O.2       1 LEU        -0.3944
     31 CB         43.3370    9.7320   48.7770 C.3       1 LEU        -0.0101
     32 CG         42.7930    8.9710   47.5670 C.3       1 LEU        -0.0425
     33 CD1        41.2740    8.9740   47.5950 C.3       1 LEU        -0.0625
     34 CD2        43.3160    9.6120   46.2860 C.3       1 LEU        -0.0625
     35 N          42.4220    6.8690   50.1220 N.am      1 LEU        -0.2650
     36 CA         42.6920    5.4400   50.2970 C.3       1 LEU         0.1130
     37 C          44.0800    5.0100   49.8440 C.2       1 LEU         0.1245
     38 O          44.7690    5.8230   49.1950 O.2       1 LEU        -0.3725
     39 CB         41.6560    4.6030   49.5430 C.3       1 LEU        -0.0114
     40 CG         40.2970    4.3970   50.2050 C.3       1 LEU        -0.0425
     41 CD1        39.4170    3.5500   49.2920 C.3       1 LEU        -0.0624
     42 CD2        40.4870    3.7130   51.5560 C.3       1 LEU        -0.0624
     43 H1         38.4657   16.5267   58.2106 H         1 ASP         0.2016
     44 H2         40.1099   16.6034   58.1994 H         1 ASP         0.2016
     45 H3         39.3466   15.4287   59.0636 H         1 ASP         0.2016
     46 H4         38.4815   14.4272   57.0905 H         1 ASP         0.1117
     47 H5         40.2576   16.4412   55.6309 H         1 ASP         0.0512
     48 H6         38.4899   16.6722   55.8513 H         1 ASP         0.0512
     49 H7         39.7753   12.8734   55.9128 H         1 ASP         0.1886
     50 H8         42.5223   12.6457   57.0450 H         1 ASP         0.0819
     51 H9         41.2670   10.8088   57.8280 H         1 ASP         0.0478
     52 H10        42.2074   10.1615   56.4412 H         1 ASP         0.0478
     53 H11        43.2721   10.4734   55.3635 H         1 HIS         0.1885
     54 H12        43.9378   12.0219   52.9193 H         1 HIS         0.0824
     55 H13        45.7806   10.4129   52.6542 H         1 HIS         0.0491
     56 H14        45.1848    9.4807   54.0694 H         1 HIS         0.0491
     57 H15        46.1026   13.1665   53.4278 H         1 HIS         0.2386
     58 H16        46.6820   10.0901   56.2417 H         1 HIS         0.0324
     59 H17        47.5518   14.1511   55.2863 H         1 HIS         0.1149
     60 H18        44.2695   10.7121   50.9236 H         1 LEU         0.1883
     61 H19        41.8112    9.3279   50.2500 H         1 LEU         0.0800
     62 H20        44.4347    9.6738   48.7353 H         1 LEU         0.0315
     63 H21        43.0212   10.7807   48.6746 H         1 LEU         0.0315
     64 H22        43.1446    7.9297   47.6111 H         1 LEU         0.0298
     65 H23        40.8901    8.4252   46.7224 H         1 LEU         0.0232
     66 H24        40.9087   10.0112   47.5656 H         1 LEU         0.0232
     67 H25        40.9233    8.4877   48.5172 H         1 LEU         0.0232
     68 H26        44.4159    9.5970   46.2911 H         1 LEU         0.0232
     69 H27        42.9638   10.6524   46.2263 H         1 LEU         0.0232
     70 H28        42.9457    9.0490   45.4166 H         1 LEU         0.0232
     71 H29        41.5221    7.1524   49.7904 H         1 LEU         0.1884
     72 H30        42.6054    5.2182   51.3709 H         1 LEU         0.0790
     73 H31        44.4620    4.0180   50.0803 H         1 LEU         0.1373
     74 H32        42.0949    3.6083   49.3762 H         1 LEU         0.0316
     75 H33        41.4791    5.0929   48.5742 H         1 LEU         0.0316
     76 H34        39.8168    5.3741   50.3621 H         1 LEU         0.0298
     77 H35        38.4357    3.3989   49.7656 H         1 LEU         0.0232
     78 H36        39.8963    2.5746   49.1224 H         1 LEU         0.0232
     79 H37        39.2840    4.0655   48.3294 H         1 LEU         0.0232
     80 H38        41.1236    4.3397   52.1979 H         1 LEU         0.0232
     81 H39        40.9668    2.7344   51.4073 H         1 LEU         0.0232
     82 H40        39.5076    3.5720   52.0366 H         1 LEU         0.0232
@<TRIPOS>BOND
     1    1    2 1  
     2    2    3 1  
     3    2    5 1  
     4    3    4 2  
     5    3    9 am 
     6    5    6 1  
     7    6    7 ar 
     8    6    8 ar 
     9    9   10 1  
    10   10   11 1  
    11   10   13 1  
    12   11   12 2  
    13   11   17 am 
    14   13   14 1  
    15   14   15 ar 
    16   14   16 ar 
    17   17   18 1  
    18   18   19 1  
    19   18   21 1  
    20   19   20 2  
    21   19   27 am 
    22   21   22 1  
    23   22   23 1  
    24   22   24 2  
    25   23   25 1  
    26   24   26 1  
    27   25   26 2  
    28   27   28 1  
    29   28   29 1  
    30   28   31 1  
    31   29   30 2  
    32   29   35 am 
    33   31   32 1  
    34   32   33 1  
    35   32   34 1  
    36   35   36 1  
    37   36   37 1  
    38   36   39 1  
    39   37   38 2  
    40   39   40 1  
    41   40   41 1  
    42   40   42 1  
    43    1   43 1  
    44    1   44 1  
    45    1   45 1  
    46    2   46 1  
    47    5   47 1  
    48    5   48 1  
    49    9   49 1  
    50   10   50 1  
    51   13   51 1  
    52   13   52 1  
    53   17   53 1  
    54   18   54 1  
    55   21   55 1  
    56   21   56 1  
    57   23   57 1  
    58   24   58 1  
    59   25   59 1  
    60   27   60 1  
    61   28   61 1  
    62   31   62 1  
    63   31   63 1  
    64   32   64 1  
    65   33   65 1  
    66   33   66 1  
    67   33   67 1  
    68   34   68 1  
    69   34   69 1  
    70   34   70 1  
    71   35   71 1  
    72   36   72 1  
    73   37   73 1  
    74   39   74 1  
    75   39   75 1  
    76   40   76 1  
    77   41   77 1  
    78   41   78 1  
    79   41   79 1  
    80   42   80 1  
    81   42   81 1  
    82   42   82 1  
@<TRIPOS>SUBSTRUCTURE
     1 ASP         1

