### 
### Created by X-TOOL on Mon Sep 10 21:12:48 2018
### 

@<TRIPOS>MOLECULE
1jut_ligand
   51    53     1     0     0
SMALL
GAST_HUCK


@<TRIPOS>ATOM
      1 C5'        16.2710   14.1400   34.8440 C.ar      1 LYD        -0.0543
      2 C4'        15.9790   13.9600   33.4750 C.ar      1 LYD        -0.0370
      3 C3'        14.6720   13.6520   33.0820 C.ar      1 LYD        -0.0543
      4 C2'        13.6810   13.5130   34.0620 C.ar      1 LYD        -0.0485
      5 C1'        13.9660   13.6740   35.4380 C.ar      1 LYD         0.0428
      6 C6'        15.2720   13.9980   35.8200 C.ar      1 LYD        -0.0485
      7 C9         12.9470   13.3100   36.4470 C.2       1 LYD         0.2016
      8 O9         11.7440   13.1300   36.1770 O.2       1 LYD        -0.3877
      9 N          13.4000   13.1300   37.7290 N.am      1 LYD        -0.2714
     10 CA         12.5170   12.7010   38.8430 C.3       1 LYD         0.0961
     11 CB         12.5550   11.1730   39.0130 C.3       1 LYD        -0.0118
     12 CG1        12.1310   10.5130   37.7110 C.3       1 LYD        -0.0590
     13 CG2        11.6640   10.6630   40.1700 C.3       1 LYD        -0.0590
     14 C8         17.0850   14.1000   32.4320 C.3       1 LYD        -0.0124
     15 C7         17.1860   15.5340   31.8670 C.3       1 LYD        -0.0290
     16 C5         15.8950   15.9590   31.1920 C.2       1 LYD        -0.0590
     17 C          12.9290   13.3750   40.1230 C.2       1 LYD         0.0603
     18 OX1        14.1280   13.7090   40.1860 O.co2     1 LYD        -0.5666
     19 OX2        12.0910   13.5040   41.0340 O.co2     1 LYD        -0.5666
     20 C6         15.4610   15.4320   30.0020 C.2       1 LYD         0.0015
     21 N7         14.3460   16.1660   29.5550 N.pl3     1 LYD        -0.2940
     22 C7A        14.1150   17.1650   30.4800 C.2       1 LYD         0.0867
     23 C4A        15.0160   17.0520   31.5230 C.2       1 LYD         0.0376
     24 C4         14.9640   17.9840   32.6190 C.2       1 LYD         0.2015
     25 O4         15.7450   18.0520   33.5870 O.2       1 LYD        -0.4095
     26 N3         13.9470   18.9760   32.5330 N.am      1 LYD        -0.1858
     27 C2         12.9750   19.0190   31.5050 C.2       1 LYD         0.2318
     28 N1         13.0950   18.1440   30.4240 N.2       1 LYD        -0.2823
     29 N2         11.8760   19.8550   31.6360 N.pl3     1 LYD        -0.2816
     30 H1         17.2812   14.3915   35.1462 H         1 LYD         0.0570
     31 H2         14.4297   13.5227   32.0334 H         1 LYD         0.0570
     32 H3         12.6681   13.2756   33.7576 H         1 LYD         0.0652
     33 H4         15.5122   14.1392   36.8676 H         1 LYD         0.0652
     34 H5         14.3673   13.2949   37.9219 H         1 LYD         0.1867
     35 H6         11.4855   13.0001   38.6052 H         1 LYD         0.0728
     36 H7         13.5928   10.8824   39.2334 H         1 LYD         0.0336
     37 H8         12.1569    9.4196   37.8288 H         1 LYD         0.0234
     38 H9         12.8199   10.8116   36.9072 H         1 LYD         0.0234
     39 H10        11.1093   10.8300   37.4549 H         1 LYD         0.0234
     40 H11        11.9738   11.1427   41.1102 H         1 LYD         0.0234
     41 H12        11.7715    9.5722   40.2622 H         1 LYD         0.0234
     42 H13        10.6131   10.9115   39.9605 H         1 LYD         0.0234
     43 H14        16.8777   13.4078   31.6027 H         1 LYD         0.0451
     44 H15        18.0456   13.8361   32.8986 H         1 LYD         0.0451
     45 H16        18.0029   15.5714   31.1313 H         1 LYD         0.0378
     46 H17        17.4033   16.2285   32.6919 H         1 LYD         0.0378
     47 H18        15.9071   14.5828   29.4864 H         1 LYD         0.0605
     48 H19        13.8033   15.9905   28.6973 H         1 LYD         0.2252
     49 H20        13.9175   19.6832   33.2394 H         1 LYD         0.2506
     50 H21        11.1649   19.8912   30.8918 H         1 LYD         0.1893
     51 H22        11.7710   20.4396   32.4775 H         1 LYD         0.1893
@<TRIPOS>BOND
     1    1    2 ar 
     2    1    6 ar 
     3    2    3 ar 
     4    2   14 1  
     5    3    4 ar 
     6    4    5 ar 
     7    5    6 ar 
     8    5    7 1  
     9    7    8 2  
    10    7    9 am 
    11    9   10 1  
    12   10   11 1  
    13   10   17 1  
    14   11   12 1  
    15   11   13 1  
    16   14   15 1  
    17   15   16 1  
    18   16   20 2  
    19   16   23 1  
    20   17   18 ar 
    21   17   19 ar 
    22   20   21 1  
    23   21   22 1  
    24   22   23 2  
    25   22   28 1  
    26   23   24 1  
    27   24   25 2  
    28   24   26 am 
    29   26   27 1  
    30   27   28 2  
    31   27   29 1  
    32    1   30 1  
    33    3   31 1  
    34    4   32 1  
    35    6   33 1  
    36    9   34 1  
    37   10   35 1  
    38   11   36 1  
    39   12   37 1  
    40   12   38 1  
    41   12   39 1  
    42   13   40 1  
    43   13   41 1  
    44   13   42 1  
    45   14   43 1  
    46   14   44 1  
    47   15   45 1  
    48   15   46 1  
    49   20   47 1  
    50   21   48 1  
    51   26   49 1  
    52   29   50 1  
    53   29   51 1  
@<TRIPOS>SUBSTRUCTURE
     1 LYD         1

