### 
### Created by X-TOOL on Mon Sep 10 21:12:48 2018
### 

@<TRIPOS>MOLECULE
1jvp_ligand
   29    32     1     0     0
SMALL
GAST_HUCK


@<TRIPOS>ATOM
      1 N1          1.8030   32.3060    7.3120 N.pl3     1 MOL        -0.2172
      2 N3          0.6450   32.7880    7.8810 N.2       1 MOL        -0.2121
      3 C4          0.1680   31.8990    8.6100 C.2       1 MOL         0.0477
      4 C5          0.8640   30.8420    8.6180 C.2       1 MOL         0.0054
      5 C6          1.9070   31.0640    7.8160 C.2       1 MOL         0.1014
      6 C7          3.0170   30.0830    7.5160 C.ar      1 MOL         0.0211
      7 C8          3.0440   28.8320    8.1300 C.ar      1 MOL        -0.0293
      8 C10         4.0860   27.9470    7.8380 C.ar      1 MOL         0.0059
      9 N12         5.0630   28.2930    6.9650 N.ar      1 MOL        -0.3037
     10 C13         5.0550   29.5040    6.3640 C.ar      1 MOL         0.0059
     11 C15         4.0340   30.4220    6.6250 C.ar      1 MOL        -0.0293
     12 C17         0.3180   29.7090    9.5020 C.3       1 MOL         0.0076
     13 C20        -0.9730   30.5370   10.0070 C.ar      1 MOL        -0.0283
     14 C21        -1.0230   31.8100    9.4680 C.ar      1 MOL        -0.0114
     15 C22        -2.0320   32.7270    9.7390 C.ar      1 MOL        -0.0624
     16 C24        -3.0390   32.3040   10.6240 C.ar      1 MOL        -0.0694
     17 C26        -3.0060   31.0070   11.1870 C.ar      1 MOL        -0.0694
     18 C28        -1.9670   30.1050   10.8820 C.ar      1 MOL        -0.0595
     19 H1          2.4380   32.7834    6.6565 H         1 MOL         0.2545
     20 H2          2.2643   28.5480    8.8274 H         1 MOL         0.0687
     21 H3          4.1127   26.9739    8.3149 H         1 MOL         0.0807
     22 H4          5.8482   29.7655    5.6730 H         1 MOL         0.0807
     23 H5          4.0330   31.3905    6.1381 H         1 MOL         0.0687
     24 H6          1.0003   29.4363   10.3206 H         1 MOL         0.0569
     25 H7          0.0531   28.8077    8.9298 H         1 MOL         0.0569
     26 H8         -2.0418   33.7146    9.2922 H         1 MOL         0.0593
     27 H9         -3.8488   32.9786   10.8774 H         1 MOL         0.0558
     28 H10        -3.7942   30.7011   11.8654 H         1 MOL         0.0588
     29 H11        -1.9423   29.1106   11.3129 H         1 MOL         0.0559
@<TRIPOS>BOND
     1    1    2 1  
     2    1    5 1  
     3    2    3 2  
     4    3    4 1  
     5    3   14 1  
     6    4    5 2  
     7    4   12 1  
     8    5    6 1  
     9    6    7 ar 
    10    6   11 ar 
    11    7    8 ar 
    12    8    9 ar 
    13    9   10 ar 
    14   10   11 ar 
    15   12   13 1  
    16   13   14 ar 
    17   13   18 ar 
    18   14   15 ar 
    19   15   16 ar 
    20   16   17 ar 
    21   17   18 ar 
    22    1   19 1  
    23    7   20 1  
    24    8   21 1  
    25   10   22 1  
    26   11   23 1  
    27   12   24 1  
    28   12   25 1  
    29   15   26 1  
    30   16   27 1  
    31   17   28 1  
    32   18   29 1  
@<TRIPOS>SUBSTRUCTURE
     1 MOL         1

