### 
### Created by X-TOOL on Mon Sep 10 21:12:49 2018
### 

@<TRIPOS>MOLECULE
1jys_ligand
   15    16     1     0     0
SMALL
GAST_HUCK


@<TRIPOS>ATOM
      1 N9         -7.2690  -38.5160   -0.5560 N.pl3     1 ADE        -0.2361
      2 C8         -7.1530  -37.9600   -1.7750 C.2       1 ADE         0.1072
      3 N7         -6.1740  -37.0530   -1.8720 N.2       1 ADE        -0.2960
      4 C5         -5.6320  -37.0380   -0.6110 C.ar      1 ADE         0.1042
      5 C6         -4.5680  -36.3110   -0.0170 C.ar      1 ADE         0.1298
      6 N6         -3.8590  -35.4220   -0.7110 N.pl3     1 ADE        -0.3152
      7 N1         -4.2920  -36.5620    1.3210 N.ar      1 ADE        -0.2698
      8 C2         -5.0260  -37.4710    2.0100 C.ar      1 ADE         0.0533
      9 N3         -6.0590  -38.2140    1.5360 N.ar      1 ADE        -0.2715
     10 C4         -6.3000  -37.9380    0.2120 C.ar      1 ADE         0.1567
     11 H1         -7.9495  -39.2312   -0.2622 H         1 ADE         0.2393
     12 H2         -7.7995  -38.2248   -2.6104 H         1 ADE         0.1346
     13 H3         -3.0915  -34.9073   -0.2561 H         1 ADE         0.1820
     14 H4         -4.0784  -35.2493   -1.7024 H         1 ADE         0.1820
     15 H5         -4.7595  -37.6203    3.0501 H         1 ADE         0.0996
@<TRIPOS>BOND
     1    1    2 1  
     2    1   10 1  
     3    2    3 2  
     4    3    4 1  
     5    4    5 ar 
     6    4   10 ar 
     7    5    6 1  
     8    5    7 ar 
     9    7    8 ar 
    10    8    9 ar 
    11    9   10 ar 
    12    1   11 1  
    13    2   12 1  
    14    6   13 1  
    15    6   14 1  
    16    8   15 1  
@<TRIPOS>SUBSTRUCTURE
     1 ADE         1

