### 
### Created by X-TOOL on Mon Sep 10 21:12:48 2018
### 

@<TRIPOS>MOLECULE
1k03_ligand
   15    15     1     0     0
SMALL
GAST_HUCK


@<TRIPOS>ATOM
      1 C1'        32.8990   72.1150   18.2710 C.2       1 HBA         0.1185
      2 O1'        32.2290   71.5000   17.4140 O.2       1 HBA        -0.3680
      3 C1         34.0480   71.5070   18.7700 C.ar      1 HBA         0.0188
      4 C2         34.5200   70.2120   18.3630 C.ar      1 HBA        -0.0516
      5 C3         35.6960   69.6950   18.9450 C.ar      1 HBA        -0.0266
      6 C4         36.3790   70.4620   19.9120 C.ar      1 HBA         0.0937
      7 C5         35.9090   71.7230   20.2960 C.ar      1 HBA        -0.0266
      8 C6         34.7500   72.2310   19.7220 C.ar      1 HBA        -0.0516
      9 O4         37.4160   70.0820   20.4800 O.3       1 HBA        -0.3292
     10 H1         32.5923   73.1005   18.6184 H         1 HBA         0.1316
     11 H2         33.9789   69.6398   17.6181 H         1 HBA         0.0646
     12 H3         36.0703   68.7205   18.6529 H         1 HBA         0.0558
     13 H4         36.4471   72.3013   21.0384 H         1 HBA         0.0558
     14 H5         34.3891   73.2079   20.0229 H         1 HBA         0.0646
     15 H6         37.2647   70.0383   21.4169 H         1 HBA         0.2503
@<TRIPOS>BOND
     1    1    2 2  
     2    1    3 1  
     3    3    4 ar 
     4    3    8 ar 
     5    4    5 ar 
     6    5    6 ar 
     7    6    7 ar 
     8    6    9 1  
     9    7    8 ar 
    10    1   10 1  
    11    4   11 1  
    12    5   12 1  
    13    7   13 1  
    14    8   14 1  
    15    9   15 1  
@<TRIPOS>SUBSTRUCTURE
     1 HBA         1

