### 
### Created by X-TOOL on Mon Sep 10 21:12:48 2018
### 

@<TRIPOS>MOLECULE
1k06_ligand
   41    42     1     0     0
SMALL
GAST_HUCK


@<TRIPOS>ATOM
      1 O5         33.1100   21.5100   28.3840 O.3       1 BZD        -0.3438
      2 C1         33.2740   22.9230   28.0680 C.3       1 BZD         0.1725
      3 C2         33.7430   23.1030   26.5760 C.3       1 BZD         0.1306
      4 O2         33.9270   24.4960   26.2810 O.3       1 BZD        -0.3844
      5 C3         32.6530   22.4710   25.6550 C.3       1 BZD         0.1138
      6 O3         33.0420   22.6130   24.2810 O.3       1 BZD        -0.3864
      7 C4         32.5080   20.9830   26.0360 C.3       1 BZD         0.1119
      8 O4         31.5000   20.3850   25.2030 O.3       1 BZD        -0.3865
      9 C5         32.1280   20.8610   27.5430 C.3       1 BZD         0.1127
     10 C6         32.0230   19.3760   27.9840 C.3       1 BZD         0.0730
     11 O6         33.2020   18.6690   27.5350 O.3       1 BZD        -0.3924
     12 N1         34.2330   23.4910   29.0030 N.am      1 BZD        -0.2397
     13 C7         33.8060   24.1330   30.1390 C.2       1 BZD         0.2892
     14 O7         32.5820   24.2130   30.3440 O.2       1 BZD        -0.3915
     15 N2         34.7020   24.6680   31.0290 N.am      1 BZD        -0.1846
     16 C8         34.3990   25.3220   32.2000 C.2       1 BZD         0.2333
     17 O8         33.2410   25.5190   32.5960 O.2       1 BZD        -0.3744
     18 C9         35.5240   25.8380   33.0700 C.ar      1 BZD         0.0551
     19 C10        36.7620   26.2740   32.5040 C.ar      1 BZD        -0.0415
     20 C11        37.8070   26.7480   33.3380 C.ar      1 BZD        -0.0561
     21 C12        37.6230   26.7940   34.7600 C.ar      1 BZD        -0.0575
     22 C13        36.3950   26.3610   35.3350 C.ar      1 BZD        -0.0561
     23 C14        35.3490   25.8850   34.4950 C.ar      1 BZD        -0.0415
     24 H1         32.3084   23.4346   28.1936 H         1 BZD         0.0893
     25 H2         34.6975   22.5779   26.4241 H         1 BZD         0.0668
     26 H3         33.1059   24.9566   26.4079 H         1 BZD         0.2101
     27 H4         31.6926   22.9837   25.8121 H         1 BZD         0.0647
     28 H5         33.1355   23.5352   24.0732 H         1 BZD         0.2100
     29 H6         33.4657   20.4690   25.8669 H         1 BZD         0.0647
     30 H7         30.6733   20.8333   25.3369 H         1 BZD         0.2100
     31 H8         31.1525   21.3467   27.6930 H         1 BZD         0.0647
     32 H9         31.1270   18.9206   27.5371 H         1 BZD         0.0584
     33 H10        31.9545   19.3205   29.0804 H         1 BZD         0.0584
     34 H11        33.9740   19.0654   27.9216 H         1 BZD         0.2095
     35 H12        35.2124   23.4131   28.8165 H         1 BZD         0.1879
     36 H13        35.6717   24.5730   30.8040 H         1 BZD         0.2248
     37 H14        36.9033   26.2422   31.4297 H         1 BZD         0.0670
     38 H15        38.7437   27.0751   32.9013 H         1 BZD         0.0629
     39 H16        38.4202   27.1590   35.3974 H         1 BZD         0.0653
     40 H17        36.2567   26.3936   36.4097 H         1 BZD         0.0629
     41 H18        34.4140   25.5557   34.9337 H         1 BZD         0.0670
@<TRIPOS>BOND
     1    1    2 1  
     2    1    9 1  
     3    2    3 1  
     4    2   12 1  
     5    3    4 1  
     6    3    5 1  
     7    5    6 1  
     8    5    7 1  
     9    7    8 1  
    10    7    9 1  
    11    9   10 1  
    12   10   11 1  
    13   12   13 am 
    14   13   14 2  
    15   13   15 am 
    16   15   16 am 
    17   16   17 2  
    18   16   18 1  
    19   18   19 ar 
    20   18   23 ar 
    21   19   20 ar 
    22   20   21 ar 
    23   21   22 ar 
    24   22   23 ar 
    25    2   24 1  
    26    3   25 1  
    27    4   26 1  
    28    5   27 1  
    29    6   28 1  
    30    7   29 1  
    31    8   30 1  
    32    9   31 1  
    33   10   32 1  
    34   10   33 1  
    35   11   34 1  
    36   12   35 1  
    37   15   36 1  
    38   19   37 1  
    39   20   38 1  
    40   21   39 1  
    41   22   40 1  
    42   23   41 1  
@<TRIPOS>SUBSTRUCTURE
     1 BZD         1

