### 
### Created by X-TOOL on Mon Sep 10 21:12:48 2018
### 

@<TRIPOS>MOLECULE
1k08_ligand
   41    42     1     0     0
SMALL
GAST_HUCK


@<TRIPOS>ATOM
      1 O5         33.0340   21.4550   28.3080 O.3       1 BZD        -0.3438
      2 C1         33.2180   22.8720   28.0120 C.3       1 BZD         0.1725
      3 C2         33.6690   23.0910   26.5230 C.3       1 BZD         0.1306
      4 O2         33.8610   24.4910   26.2670 O.3       1 BZD        -0.3844
      5 C3         32.5700   22.4860   25.5930 C.3       1 BZD         0.1138
      6 O3         32.9420   22.6730   24.2170 O.3       1 BZD        -0.3864
      7 C4         32.4250   20.9850   25.9410 C.3       1 BZD         0.1119
      8 O4         31.4160   20.4120   25.0930 O.3       1 BZD        -0.3865
      9 C5         32.0500   20.8360   27.4520 C.3       1 BZD         0.1127
     10 C6         31.9300   19.3510   27.8850 C.3       1 BZD         0.0730
     11 O6         33.1280   18.6500   27.5000 O.3       1 BZD        -0.3924
     12 N1         34.1870   23.4130   28.9550 N.am      1 BZD        -0.2397
     13 C7         33.7740   24.0780   30.0800 C.2       1 BZD         0.2892
     14 O7         32.5540   24.2070   30.2650 O.2       1 BZD        -0.3915
     15 N2         34.6780   24.5900   30.9740 N.am      1 BZD        -0.1846
     16 C8         34.3860   25.2680   32.1370 C.2       1 BZD         0.2333
     17 O8         33.2320   25.5070   32.5170 O.2       1 BZD        -0.3744
     18 C9         35.5100   25.7640   33.0240 C.ar      1 BZD         0.0551
     19 C10        36.7370   26.2540   32.4820 C.ar      1 BZD        -0.0415
     20 C11        37.7770   26.7080   33.3360 C.ar      1 BZD        -0.0561
     21 C12        37.6040   26.6690   34.7490 C.ar      1 BZD        -0.0575
     22 C13        36.3900   26.1830   35.3040 C.ar      1 BZD        -0.0561
     23 C14        35.3490   25.7290   34.4460 C.ar      1 BZD        -0.0415
     24 H1         32.2589   23.3906   28.1571 H         1 BZD         0.0893
     25 H2         34.6195   22.5660   26.3474 H         1 BZD         0.0668
     26 H3         33.0454   24.9541   26.4178 H         1 BZD         0.2101
     27 H4         31.6118   22.9945   25.7751 H         1 BZD         0.0647
     28 H5         33.0306   23.6016   24.0375 H         1 BZD         0.2100
     29 H6         33.3811   20.4726   25.7587 H         1 BZD         0.0647
     30 H7         30.5904   20.8591   25.2383 H         1 BZD         0.2100
     31 H8         31.0798   21.3297   27.6099 H         1 BZD         0.0647
     32 H9         31.0603   18.8925   27.3917 H         1 BZD         0.0584
     33 H10        31.8047   19.2944   28.9764 H         1 BZD         0.0584
     34 H11        33.8776   19.0484   27.9265 H         1 BZD         0.2095
     35 H12        35.1648   23.2980   28.7797 H         1 BZD         0.1879
     36 H13        35.6461   24.4582   30.7607 H         1 BZD         0.2248
     37 H14        36.8761   26.2797   31.4073 H         1 BZD         0.0670
     38 H15        38.7015   27.0838   32.9127 H         1 BZD         0.0629
     39 H16        38.3994   27.0105   35.4016 H         1 BZD         0.0653
     40 H17        36.2566   26.1579   36.3795 H         1 BZD         0.0629
     41 H18        34.4262   25.3534   34.8731 H         1 BZD         0.0670
@<TRIPOS>BOND
     1    1    2 1  
     2    1    9 1  
     3    2    3 1  
     4    2   12 1  
     5    3    4 1  
     6    3    5 1  
     7    5    6 1  
     8    5    7 1  
     9    7    8 1  
    10    7    9 1  
    11    9   10 1  
    12   10   11 1  
    13   12   13 am 
    14   13   14 2  
    15   13   15 am 
    16   15   16 am 
    17   16   17 2  
    18   16   18 1  
    19   18   19 ar 
    20   18   23 ar 
    21   19   20 ar 
    22   20   21 ar 
    23   21   22 ar 
    24   22   23 ar 
    25    2   24 1  
    26    3   25 1  
    27    4   26 1  
    28    5   27 1  
    29    6   28 1  
    30    7   29 1  
    31    8   30 1  
    32    9   31 1  
    33   10   32 1  
    34   10   33 1  
    35   11   34 1  
    36   12   35 1  
    37   15   36 1  
    38   19   37 1  
    39   20   38 1  
    40   21   39 1  
    41   22   40 1  
    42   23   41 1  
@<TRIPOS>SUBSTRUCTURE
     1 BZD         1

