### 
### Created by X-TOOL on Mon Sep 10 21:12:48 2018
### 

@<TRIPOS>MOLECULE
1k1i_ligand
   64    67     1     0     0
SMALL
GAST_HUCK


@<TRIPOS>ATOM
      1 C65        -1.9460   16.3580   17.9190 C.ar      1 FD1        -0.0390
      2 C66        -2.1720   15.7500   16.6690 C.ar      1 FD1        -0.0549
      3 C64        -1.2090   15.6570   18.9080 C.ar      1 FD1        -0.0601
      4 C63        -0.7120   14.3700   18.6440 C.ar      1 FD1        -0.0686
      5 C62        -0.9510   13.7740   17.3880 C.ar      1 FD1        -0.0635
      6 C61        -1.6850   14.4660   16.3940 C.ar      1 FD1         0.0192
      7 C25        -1.9390   13.8370   15.0520 C.cat     1 FD1         0.2340
      8 N43        -1.5300   12.6220   14.8450 N.pl3     1 FD1        -0.2722
      9 N54        -2.5590   14.5170   14.1140 N.pl3     1 FD1        -0.2722
     10 C34        -2.4960   17.7690   18.1950 C.3       1 FD1         0.0179
     11 C31        -1.5620   18.8980   17.7300 C.3       1 FD1         0.1359
     12 C35        -0.0870   18.6680   18.0210 C.2       1 FD1         0.2040
     13 O36         0.5340   18.1360   17.1000 O.2       1 FD1        -0.3945
     14 N81         0.5010   19.0230   19.2100 N.am      1 FD1        -0.2558
     15 C71        -0.2470   19.8150   20.2320 C.3       1 FD1         0.0971
     16 C72         0.6530   21.0230   20.5920 C.3       1 FD1        -0.0177
     17 C74         2.7150   19.5710   19.9480 C.3       1 FD1        -0.0322
     18 C75         1.7780   18.3950   19.6130 C.3       1 FD1         0.0361
     19 C40         2.0670   20.6970   20.6950 C.3       1 FD1        -0.0476
     20 C91        -0.5820   18.9880   21.4490 C.2       1 FD1         0.0603
     21 O92        -0.9650   19.5460   22.5220 O.co2     1 FD1        -0.5666
     22 O93        -0.5010   17.7150   21.4050 O.co2     1 FD1        -0.5666
     23 N29        -1.7630   19.2270   16.3130 N.am      1 FD1        -0.2235
     24 S12        -2.1700   20.8310   15.8680 S.o2      1 FD1         0.0706
     25 O32        -2.4500   20.8760   14.4610 O.2       1 FD1        -0.1501
     26 O33        -3.0810   21.3790   16.8160 O.2       1 FD1        -0.1501
     27 C2         -0.6520   21.6130   16.0820 C.ar      1 FD1         0.1089
     28 C3          0.4730   21.0990   15.4000 C.ar      1 FD1        -0.0345
     29 C4          1.7430   21.7340   15.5420 C.ar      1 FD1        -0.0522
     30 C9          0.6820   23.4060   17.0380 C.ar      1 FD1        -0.0160
     31 C10         1.8520   22.9000   16.3680 C.ar      1 FD1        -0.0178
     32 C1         -0.5600   22.7480   16.8740 C.ar      1 FD1        -0.0274
     33 C5          3.0890   23.5910   16.5510 C.ar      1 FD1        -0.0540
     34 C6          3.1560   24.7650   17.3910 C.ar      1 FD1        -0.0612
     35 C7          1.9960   25.2380   18.0410 C.ar      1 FD1        -0.0612
     36 C8          0.7660   24.5690   17.8660 C.ar      1 FD1        -0.0540
     37 H1         -2.7310   16.2835   15.9087 H         1 FD1         0.0556
     38 H2         -1.0284   16.1171   19.8727 H         1 FD1         0.0557
     39 H3         -0.1479   13.8377   19.4013 H         1 FD1         0.0599
     40 H4         -0.5704   12.7800   17.1824 H         1 FD1         0.0559
     41 H5         -1.6935   12.1719   13.9331 H         1 FD1         0.3181
     42 H6         -1.0421   12.1084   15.5927 H         1 FD1         0.3181
     43 H7         -2.8751   15.4796   14.2993 H         1 FD1         0.3181
     44 H8         -2.7289   14.0874   13.1934 H         1 FD1         0.3181
     45 H9         -2.6551   17.8740   19.2783 H         1 FD1         0.0469
     46 H10        -3.4573   17.8757   17.6711 H         1 FD1         0.0469
     47 H11        -1.8534   19.7880   18.3071 H         1 FD1         0.0777
     48 H12        -1.1875   20.1793   19.7930 H         1 FD1         0.0728
     49 H13         0.3197   21.4266   21.5595 H         1 FD1         0.0306
     50 H14         0.5307   21.7899   19.8130 H         1 FD1         0.0306
     51 H15         3.5428   19.1851   20.5610 H         1 FD1         0.0285
     52 H16         3.1133   19.9709   19.0039 H         1 FD1         0.0285
     53 H17         2.1906   17.7952   18.7884 H         1 FD1         0.0524
     54 H18         1.6319   17.7543   20.4951 H         1 FD1         0.0524
     55 H19         2.2518   20.4958   21.7605 H         1 FD1         0.0268
     56 H20         2.6074   21.6067   20.3945 H         1 FD1         0.0268
     57 H21        -1.6631   18.5201   15.6128 H         1 FD1         0.1708
     58 H22         0.3718   20.2231   14.7694 H         1 FD1         0.0637
     59 H23         2.6141   21.3394   15.0316 H         1 FD1         0.0624
     60 H24        -1.4439   23.1328   17.3698 H         1 FD1         0.0643
     61 H25         3.9841   23.2319   16.0560 H         1 FD1         0.0624
     62 H26         4.0990   25.2833   17.5221 H         1 FD1         0.0618
     63 H27         2.0500   26.1156   18.6750 H         1 FD1         0.0618
     64 H28        -0.1229   24.9398   18.3635 H         1 FD1         0.0624
@<TRIPOS>BOND
     1    1   10 1  
     2    1    3 ar 
     3    1    2 ar 
     4    2    6 ar 
     5    6    7 1  
     6    6    5 ar 
     7    5    4 ar 
     8    4    3 ar 
     9    7    9 ar 
    10    7    8 ar 
    11   10   11 1  
    12   11   23 1  
    13   11   12 1  
    14   12   14 am 
    15   12   13 2  
    16   14   18 1  
    17   14   15 1  
    18   15   20 1  
    19   15   16 1  
    20   16   19 1  
    21   19   17 1  
    22   17   18 1  
    23   20   22 ar 
    24   20   21 ar 
    25   23   24 am 
    26   24   27 1  
    27   24   26 2  
    28   24   25 2  
    29   27   32 ar 
    30   27   28 ar 
    31   28   29 ar 
    32   29   31 ar 
    33   31   30 ar 
    34   31   33 ar 
    35   33   34 ar 
    36   34   35 ar 
    37   35   36 ar 
    38   36   30 ar 
    39   30   32 ar 
    40    2   37 1  
    41    3   38 1  
    42    4   39 1  
    43    5   40 1  
    44    8   41 1  
    45    8   42 1  
    46    9   43 1  
    47    9   44 1  
    48   10   45 1  
    49   10   46 1  
    50   11   47 1  
    51   15   48 1  
    52   16   49 1  
    53   16   50 1  
    54   17   51 1  
    55   17   52 1  
    56   18   53 1  
    57   18   54 1  
    58   19   55 1  
    59   19   56 1  
    60   23   57 1  
    61   28   58 1  
    62   29   59 1  
    63   32   60 1  
    64   33   61 1  
    65   34   62 1  
    66   35   63 1  
    67   36   64 1  
@<TRIPOS>SUBSTRUCTURE
     1 FD1         1

