### 
### Created by X-TOOL on Mon Sep 10 21:12:48 2018
### 

@<TRIPOS>MOLECULE
1k1l_ligand
   62    65     1     0     0
SMALL
GAST_HUCK


@<TRIPOS>ATOM
      1 C65        -3.2450    5.7480   20.2080 C.ar      1 FD3        -0.0390
      2 C66        -3.8130    7.0280   20.1030 C.ar      1 FD3        -0.0549
      3 C64        -1.8960    5.5640   19.8250 C.ar      1 FD3        -0.0601
      4 C63        -1.1280    6.6450   19.3710 C.ar      1 FD3        -0.0686
      5 C62        -1.7070    7.9240   19.2760 C.ar      1 FD3        -0.0635
      6 C61        -3.0560    8.1170   19.6400 C.ar      1 FD3         0.0192
      7 C25        -3.6940    9.4740   19.5440 C.cat     1 FD3         0.2340
      8 N43        -2.9810   10.4910   19.1390 N.pl3     1 FD3        -0.2722
      9 N54        -4.9560    9.6140   19.8860 N.pl3     1 FD3        -0.2722
     10 C34        -4.0900    4.5600   20.7130 C.3       1 FD3         0.0179
     11 C31        -4.0520    4.3820   22.2420 C.3       1 FD3         0.1358
     12 C35        -2.7330    4.7590   22.8850 C.2       1 FD3         0.2026
     13 O36        -2.7060    5.8960   23.3530 O.2       1 FD3        -0.3946
     14 N81        -1.6530    3.9220   22.9120 N.am      1 FD3        -0.2613
     15 C71        -1.5950    2.7340   22.0300 C.3       1 FD3         0.0740
     16 C72        -1.1190    1.5670   22.9310 C.3       1 FD3        -0.0127
     17 C74         0.1300    3.3040   24.3760 C.3       1 FD3        -0.0127
     18 C75        -0.3720    4.4270   23.4370 C.3       1 FD3         0.0740
     19 N40        -0.0250    1.9370   23.8060 N.4       1 FD3         0.2298
     20 N29        -5.1560    5.1010   22.8930 N.am      1 FD3        -0.2235
     21 S12        -6.0160    4.3560   24.1820 S.o2      1 FD3         0.0706
     22 O32        -7.0700    5.2380   24.6080 O.2       1 FD3        -0.1501
     23 O33        -6.2660    2.9880   23.8750 O.2       1 FD3        -0.1501
     24 C2         -4.7590    4.4100   25.3600 C.ar      1 FD3         0.1089
     25 C3         -4.4710    5.6480   25.9580 C.ar      1 FD3        -0.0345
     26 C4         -3.4430    5.7550   26.9290 C.ar      1 FD3        -0.0522
     27 C9         -3.0190    3.3300   26.6770 C.ar      1 FD3        -0.0160
     28 C10        -2.7100    4.5860   27.2970 C.ar      1 FD3        -0.0178
     29 C1         -4.0540    3.2590   25.7070 C.ar      1 FD3        -0.0274
     30 C5         -1.6680    4.6280   28.2750 C.ar      1 FD3        -0.0540
     31 C6         -0.9450    3.4410   28.6250 C.ar      1 FD3        -0.0612
     32 C7         -1.2660    2.2110   28.0000 C.ar      1 FD3        -0.0612
     33 C8         -2.2910    2.1500   27.0330 C.ar      1 FD3        -0.0540
     34 H1         -4.8495    7.1777   20.3830 H         1 FD3         0.0556
     35 H2         -1.4516    4.5770   19.8832 H         1 FD3         0.0557
     36 H3         -0.0907    6.4962   19.0938 H         1 FD3         0.0599
     37 H4         -1.1160    8.7613   18.9229 H         1 FD3         0.0559
     38 H5         -3.4092   11.4252   19.0698 H         1 FD3         0.3181
     39 H6         -1.9906   10.3586   18.8889 H         1 FD3         0.3181
     40 H7         -5.4976    8.7969   20.2022 H         1 FD3         0.3181
     41 H8         -5.4029   10.5407   19.8376 H         1 FD3         0.3181
     42 H9         -3.7096    3.6394   20.2463 H         1 FD3         0.0469
     43 H10        -5.1344    4.7214   20.4076 H         1 FD3         0.0469
     44 H11        -4.2018    3.3094   22.4344 H         1 FD3         0.0777
     45 H12        -0.8821    2.9001   21.2089 H         1 FD3         0.0575
     46 H13        -2.5896    2.5162   21.6137 H         1 FD3         0.0575
     47 H14        -0.7878    0.7393   22.2867 H         1 FD3         0.0834
     48 H15        -1.9654    1.2341   23.5497 H         1 FD3         0.0834
     49 H16         1.1965    3.4753   24.5839 H         1 FD3         0.0834
     50 H17        -0.4397    3.3557   25.3156 H         1 FD3         0.0834
     51 H18        -0.5222    5.3628   23.9953 H         1 FD3         0.0575
     52 H19         0.3431    4.5988   22.6190 H         1 FD3         0.0575
     53 H20         0.8197    1.7550   23.2869 H         1 FD3         0.2015
     54 H21        -0.0762    1.3113   24.5947 H         1 FD3         0.2015
     55 H22        -5.4060    6.0198   22.5875 H         1 FD3         0.1708
     56 H23        -5.0383    6.5274   25.6754 H         1 FD3         0.0637
     57 H24        -3.2166    6.7116   27.3859 H         1 FD3         0.0624
     58 H25        -4.2950    2.3120   25.2378 H         1 FD3         0.0643
     59 H26        -1.4222    5.5674   28.7568 H         1 FD3         0.0624
     60 H27        -0.1548    3.4844   29.3658 H         1 FD3         0.0618
     61 H28        -0.7213    1.3124   28.2662 H         1 FD3         0.0618
     62 H29        -2.5285    1.2054   26.5573 H         1 FD3         0.0624
@<TRIPOS>BOND
     1    1   10 1  
     2    1    3 ar 
     3    1    2 ar 
     4    2    6 ar 
     5    6    7 1  
     6    6    5 ar 
     7    5    4 ar 
     8    4    3 ar 
     9    7    9 ar 
    10    7    8 ar 
    11   10   11 1  
    12   11   20 1  
    13   11   12 1  
    14   12   14 am 
    15   12   13 2  
    16   14   18 1  
    17   14   15 1  
    18   15   16 1  
    19   16   19 1  
    20   19   17 1  
    21   17   18 1  
    22   20   21 am 
    23   21   24 1  
    24   21   23 2  
    25   21   22 2  
    26   24   29 ar 
    27   24   25 ar 
    28   25   26 ar 
    29   26   28 ar 
    30   28   27 ar 
    31   28   30 ar 
    32   30   31 ar 
    33   31   32 ar 
    34   32   33 ar 
    35   33   27 ar 
    36   27   29 ar 
    37    2   34 1  
    38    3   35 1  
    39    4   36 1  
    40    5   37 1  
    41    8   38 1  
    42    8   39 1  
    43    9   40 1  
    44    9   41 1  
    45   10   42 1  
    46   10   43 1  
    47   11   44 1  
    48   15   45 1  
    49   15   46 1  
    50   16   47 1  
    51   16   48 1  
    52   17   49 1  
    53   17   50 1  
    54   18   51 1  
    55   18   52 1  
    56   19   53 1  
    57   19   54 1  
    58   20   55 1  
    59   25   56 1  
    60   26   57 1  
    61   29   58 1  
    62   30   59 1  
    63   31   60 1  
    64   32   61 1  
    65   33   62 1  
@<TRIPOS>SUBSTRUCTURE
     1 FD3         1

