### 
### Created by X-TOOL on Mon Sep 10 21:12:48 2018
### 

@<TRIPOS>MOLECULE
1k1m_ligand
   66    69     1     0     0
SMALL
GAST_HUCK


@<TRIPOS>ATOM
      1 C65        -3.1730    5.6540   20.2490 C.ar      1 FD4        -0.0390
      2 C66        -3.7450    6.9360   20.2070 C.ar      1 FD4        -0.0549
      3 C64        -1.8430    5.4820   19.8390 C.ar      1 FD4        -0.0601
      4 C63        -1.0840    6.5810   19.4160 C.ar      1 FD4        -0.0686
      5 C62        -1.6560    7.8650   19.3790 C.ar      1 FD4        -0.0635
      6 C61        -2.9970    8.0490   19.7770 C.ar      1 FD4         0.0192
      7 C25        -3.6340    9.4260   19.7420 C.cat     1 FD4         0.2340
      8 N43        -2.9550   10.4400   19.2660 N.pl3     1 FD4        -0.2722
      9 N54        -4.8630    9.5760   20.1840 N.pl3     1 FD4        -0.2722
     10 C34        -3.9970    4.4420   20.7130 C.3       1 FD4         0.0179
     11 C31        -3.9400    4.2160   22.2590 C.3       1 FD4         0.1358
     12 C35        -2.6100    4.6180   22.8620 C.2       1 FD4         0.2024
     13 O36        -2.5170    5.8040   23.1540 O.2       1 FD4        -0.3946
     14 N81        -1.5750    3.7580   23.0680 N.am      1 FD4        -0.2677
     15 C71        -1.5450    2.4380   22.4400 C.3       1 FD4         0.0543
     16 C72        -1.1290    1.4750   23.5690 C.3       1 FD4         0.0543
     17 C74         0.1600    3.3960   24.6590 C.3       1 FD4         0.0543
     18 C75        -0.2940    4.3020   23.4970 C.3       1 FD4         0.0543
     19 N40        -0.0020    1.9730   24.3640 N.am      1 FD4        -0.2696
     20 N29        -5.0150    4.9480   22.9320 N.am      1 FD4        -0.2235
     21 S12        -5.8890    4.2530   24.2530 S.o2      1 FD4         0.0706
     22 O32        -6.9290    5.1660   24.6370 O.2       1 FD4        -0.1501
     23 O33        -6.2180    2.8790   23.9270 O.2       1 FD4        -0.1501
     24 C2         -4.6560    4.2900   25.4950 C.ar      1 FD4         0.1089
     25 C3         -4.3000    5.5150   26.0860 C.ar      1 FD4        -0.0345
     26 C4         -3.3270    5.5790   27.0850 C.ar      1 FD4        -0.0522
     27 C9         -3.0350    3.1740   26.9510 C.ar      1 FD4        -0.0160
     28 C10        -2.6930    4.4190   27.5220 C.ar      1 FD4        -0.0178
     29 C1         -4.0290    3.1110   25.9330 C.ar      1 FD4        -0.0274
     30 C5         -1.7280    4.4860   28.5210 C.ar      1 FD4        -0.0540
     31 C6         -1.0640    3.3260   28.9270 C.ar      1 FD4        -0.0612
     32 C7         -1.4180    2.0830   28.3780 C.ar      1 FD4        -0.0612
     33 C8         -2.4000    2.0060   27.3840 C.ar      1 FD4        -0.0540
     34 C48         0.9320    1.0670   24.7960 C.2       1 FD4         0.1755
     35 O49         1.8470    1.3940   25.5380 O.2       1 FD4        -0.3972
     36 C55         0.8910   -0.3950   24.4080 C.3       1 FD4         0.0258
     37 H1         -4.7771    7.0707   20.5099 H         1 FD4         0.0556
     38 H2         -1.3996    4.4929   19.8494 H         1 FD4         0.0557
     39 H3         -0.0518    6.4409   19.1161 H         1 FD4         0.0599
     40 H4         -1.0676    8.7120   19.0452 H         1 FD4         0.0559
     41 H5         -3.3806   11.3776   19.2390 H         1 FD4         0.3181
     42 H6         -1.9955   10.2998   18.9187 H         1 FD4         0.3181
     43 H7         -5.3796    8.7655   20.5544 H         1 FD4         0.3181
     44 H8         -5.3093   10.5040   20.1599 H         1 FD4         0.3181
     45 H9         -3.6081    3.5425   20.2134 H         1 FD4         0.0469
     46 H10        -5.0457    4.5993   20.4209 H         1 FD4         0.0469
     47 H11        -4.0847    3.1414   22.4440 H         1 FD4         0.0777
     48 H12        -0.8111    2.4150   21.6209 H         1 FD4         0.0542
     49 H13        -2.5384    2.1717   22.0499 H         1 FD4         0.0542
     50 H14        -0.8425    0.5124   23.1202 H         1 FD4         0.0542
     51 H15        -1.9900    1.3262   24.2372 H         1 FD4         0.0542
     52 H16         1.2224    3.5937   24.8645 H         1 FD4         0.0542
     53 H17        -0.4375    3.6407   25.5496 H         1 FD4         0.0542
     54 H18        -0.4112    5.3404   23.8404 H         1 FD4         0.0542
     55 H19         0.4348    4.2681   22.6738 H         1 FD4         0.0542
     56 H20        -5.2488    5.8693   22.6213 H         1 FD4         0.1708
     57 H21        -4.7896    6.4257   25.7603 H         1 FD4         0.0637
     58 H22        -3.0641    6.5355   27.5222 H         1 FD4         0.0624
     59 H23        -4.3011    2.1564   25.4973 H         1 FD4         0.0643
     60 H24        -1.4913    5.4371   28.9841 H         1 FD4         0.0624
     61 H25        -0.2742    3.3855   29.6671 H         1 FD4         0.0618
     62 H26        -0.9290    1.1801   28.7253 H         1 FD4         0.0618
     63 H27        -2.6664    1.0478   26.9529 H         1 FD4         0.0624
     64 H28         1.7380   -0.9214   24.8723 H         1 FD4         0.0467
     65 H29         0.9580   -0.4860   23.3138 H         1 FD4         0.0467
     66 H30        -0.0527   -0.8404   24.7559 H         1 FD4         0.0467
@<TRIPOS>BOND
     1    1   10 1  
     2    1    3 ar 
     3    1    2 ar 
     4    2    6 ar 
     5    6    7 1  
     6    6    5 ar 
     7    5    4 ar 
     8    4    3 ar 
     9    7    9 ar 
    10    7    8 ar 
    11   10   11 1  
    12   11   20 1  
    13   11   12 1  
    14   12   14 am 
    15   12   13 2  
    16   14   18 1  
    17   14   15 1  
    18   15   16 1  
    19   16   19 1  
    20   19   17 1  
    21   19   34 am 
    22   34   36 1  
    23   34   35 2  
    24   17   18 1  
    25   20   21 am 
    26   21   24 1  
    27   21   23 2  
    28   21   22 2  
    29   24   29 ar 
    30   24   25 ar 
    31   25   26 ar 
    32   26   28 ar 
    33   28   27 ar 
    34   28   30 ar 
    35   30   31 ar 
    36   31   32 ar 
    37   32   33 ar 
    38   33   27 ar 
    39   27   29 ar 
    40    2   37 1  
    41    3   38 1  
    42    4   39 1  
    43    5   40 1  
    44    8   41 1  
    45    8   42 1  
    46    9   43 1  
    47    9   44 1  
    48   10   45 1  
    49   10   46 1  
    50   11   47 1  
    51   15   48 1  
    52   15   49 1  
    53   16   50 1  
    54   16   51 1  
    55   17   52 1  
    56   17   53 1  
    57   18   54 1  
    58   18   55 1  
    59   20   56 1  
    60   25   57 1  
    61   26   58 1  
    62   29   59 1  
    63   30   60 1  
    64   31   61 1  
    65   32   62 1  
    66   33   63 1  
    67   36   64 1  
    68   36   65 1  
    69   36   66 1  
@<TRIPOS>SUBSTRUCTURE
     1 FD4         1

