### 
### Created by X-TOOL on Mon Sep 10 21:12:48 2018
### 

@<TRIPOS>MOLECULE
1k1o_ligand
   70    71     1     0     0
SMALL
GAST_HUCK


@<TRIPOS>ATOM
      1 C1         43.4400   22.9820   50.9150 C.2       1 IGN         0.2019
      2 O2         44.5390   23.4540   51.1630 O.2       1 IGN        -0.3945
      3 N3         43.2750   21.6880   50.5110 N.am      1 IGN        -0.2849
      4 C4         44.4400   20.8410   50.3640 C.3       1 IGN         0.0341
      5 C5         44.2490   19.5460   51.1810 C.3       1 IGN         0.0004
      6 C6         45.6050   19.0610   51.7200 C.3       1 IGN         0.0644
      7 N7         45.4150   17.9810   52.6720 N.pl3     1 IGN        -0.2722
      8 C8         45.8710   18.0630   53.8890 C.cat     1 IGN         0.2882
      9 N9         46.3220   19.1800   54.4130 N.pl3     1 IGN        -0.2849
     10 N10        45.8990   16.9860   54.6130 N.pl3     1 IGN        -0.2849
     11 N11        42.4870   24.9140   52.0770 N.am      1 IGN        -0.2471
     12 C12        42.2220   23.8780   51.0500 C.3       1 IGN         0.1337
     13 C13        42.0170   24.5030   49.6710 C.3       1 IGN        -0.0121
     14 C14        40.8310   25.5080   49.6850 C.3       1 IGN        -0.0470
     15 C15        41.1820   26.6250   50.7080 C.3       1 IGN        -0.0321
     16 C16        41.4450   26.0160   52.1120 C.3       1 IGN         0.0369
     17 O31        43.0750   23.1830   53.4900 O.2       1 IGN        -0.3905
     18 C32        42.6750   24.3610   53.3240 C.2       1 IGN         0.2293
     19 C33        42.3870   25.1930   54.5340 C.3       1 IGN         0.0685
     20 C34        41.2530   24.4910   55.3750 C.3       1 IGN         0.0108
     21 C51        39.0480   24.5180   56.5380 C.3       1 IGN        -0.0499
     22 C52        40.1120   25.4250   55.8380 C.3       1 IGN        -0.0338
     23 C53        39.4760   26.2390   54.6620 C.3       1 IGN        -0.0499
     24 C54        38.1080   26.8590   55.0430 C.3       1 IGN        -0.0528
     25 C55        37.1670   25.7630   55.5090 C.3       1 IGN        -0.0530
     26 C56        37.7150   25.2280   56.8220 C.3       1 IGN        -0.0528
     27 N21        43.5210   25.3000   55.4180 N.4       1 IGN         0.2577
     28 C22        44.8470   24.9030   54.9380 C.3       1 IGN         0.0214
     29 C23        45.7340   24.7210   56.1220 C.2       1 IGN         0.0813
     30 O24        45.2390   24.7270   57.2860 O.co2     1 IGN        -0.5645
     31 O25        47.0460   24.5800   55.9490 O.co2     1 IGN        -0.5645
     32 H1         42.3612   21.3300   50.3191 H         1 IGN         0.1851
     33 H2         45.3291   21.3758   50.7293 H         1 IGN         0.0521
     34 H3         44.5754   20.5867   49.3024 H         1 IGN         0.0521
     35 H4         43.8142   18.7686   50.5356 H         1 IGN         0.0318
     36 H5         43.5712   19.7437   52.0245 H         1 IGN         0.0318
     37 H6         46.1170   19.8974   52.2184 H         1 IGN         0.0689
     38 H7         46.2203   18.7013   50.8821 H         1 IGN         0.0689
     39 H8         44.9093   17.1330   52.3787 H         1 IGN         0.2642
     40 H9         46.6719   19.1900   55.3817 H         1 IGN         0.2615
     41 H10        46.3257   20.0459   53.8552 H         1 IGN         0.2615
     42 H11        45.5516   16.0966   54.2267 H         1 IGN         0.2615
     43 H12        46.2687   17.0208   55.5738 H         1 IGN         0.2615
     44 H13        41.3374   23.2912   51.3383 H         1 IGN         0.0802
     45 H14        41.8046   23.7062   48.9430 H         1 IGN         0.0312
     46 H15        42.9345   25.0336   49.3766 H         1 IGN         0.0312
     47 H16        39.9069   24.9953   49.9902 H         1 IGN         0.0268
     48 H17        40.6952   25.9437   48.6841 H         1 IGN         0.0268
     49 H18        40.3428   27.3332   50.7724 H         1 IGN         0.0285
     50 H19        42.0841   27.1553   50.3691 H         1 IGN         0.0285
     51 H20        41.7964   26.8136   52.7831 H         1 IGN         0.0524
     52 H21        40.5031   25.5998   52.4988 H         1 IGN         0.0524
     53 H22        42.0674   26.1962   54.2154 H         1 IGN         0.1099
     54 H23        41.7156   24.0479   56.2692 H         1 IGN         0.0348
     55 H24        40.8128   23.6946   54.7570 H         1 IGN         0.0348
     56 H25        39.4653   24.1693   57.4942 H         1 IGN         0.0268
     57 H26        38.8483   23.6534   55.8880 H         1 IGN         0.0268
     58 H27        40.5137   26.1422   56.5690 H         1 IGN         0.0304
     59 H28        39.3318   25.5658   53.8041 H         1 IGN         0.0268
     60 H29        40.1646   27.0493   54.3805 H         1 IGN         0.0268
     61 H30        37.6771   27.3634   54.1656 H         1 IGN         0.0265
     62 H31        38.2495   27.5895   55.8532 H         1 IGN         0.0265
     63 H32        37.1272   24.9573   54.7612 H         1 IGN         0.0265
     64 H33        36.1575   26.1725   55.6610 H         1 IGN         0.0265
     65 H34        37.8791   26.0600   57.5225 H         1 IGN         0.0265
     66 H35        37.0005   24.5155   57.2599 H         1 IGN         0.0265
     67 H36        43.3187   24.7314   56.2253 H         1 IGN         0.2049
     68 H37        43.5866   26.2667   55.6958 H         1 IGN         0.2049
     69 H38        45.2561   25.6862   54.2829 H         1 IGN         0.0989
     70 H39        44.7736   23.9586   54.3788 H         1 IGN         0.0989
@<TRIPOS>BOND
     1    1    2 2  
     2    1    3 am 
     3    1   12 1  
     4    3    4 1  
     5    4    5 1  
     6    5    6 1  
     7    6    7 1  
     8    7    8 ar 
     9    8    9 ar 
    10    8   10 ar 
    11   12   11 1  
    12   11   16 1  
    13   11   18 am 
    14   12   13 1  
    15   13   14 1  
    16   14   15 1  
    17   15   16 1  
    18   18   17 2  
    19   18   19 1  
    20   19   20 1  
    21   19   27 1  
    22   20   22 1  
    23   22   21 1  
    24   21   26 1  
    25   22   23 1  
    26   23   24 1  
    27   24   25 1  
    28   25   26 1  
    29   27   28 1  
    30   28   29 1  
    31   29   30 ar 
    32   29   31 ar 
    33    3   32 1  
    34    4   33 1  
    35    4   34 1  
    36    5   35 1  
    37    5   36 1  
    38    6   37 1  
    39    6   38 1  
    40    7   39 1  
    41    9   40 1  
    42    9   41 1  
    43   10   42 1  
    44   10   43 1  
    45   12   44 1  
    46   13   45 1  
    47   13   46 1  
    48   14   47 1  
    49   14   48 1  
    50   15   49 1  
    51   15   50 1  
    52   16   51 1  
    53   16   52 1  
    54   19   53 1  
    55   20   54 1  
    56   20   55 1  
    57   21   56 1  
    58   21   57 1  
    59   22   58 1  
    60   23   59 1  
    61   23   60 1  
    62   24   61 1  
    63   24   62 1  
    64   25   63 1  
    65   25   64 1  
    66   26   65 1  
    67   26   66 1  
    68   27   67 1  
    69   27   68 1  
    70   28   69 1  
    71   28   70 1  
@<TRIPOS>SUBSTRUCTURE
     1 IGN         1

