### 
### Created by X-TOOL on Mon Sep 10 21:12:48 2018
### 

@<TRIPOS>MOLECULE
1k1p_ligand
   63    65     1     0     0
SMALL
GAST_HUCK


@<TRIPOS>ATOM
      1 C1         40.2620   24.9760   55.8330 C.3       1 MEL         0.0196
      2 C2         39.0840   25.9120   55.3820 C.3       1 MEL        -0.0429
      3 C3         37.7310   25.3530   55.9250 C.3       1 MEL        -0.0525
      4 C4         37.7780   25.2940   57.4640 C.3       1 MEL        -0.0530
      5 C5         38.9620   24.4070   57.9160 C.3       1 MEL        -0.0525
      6 C6         40.3050   24.9610   57.3840 C.3       1 MEL        -0.0429
      7 N7         42.7580   25.0960   56.0500 N.4       1 MEL         0.2579
      8 C8         41.6120   25.2920   55.1120 C.3       1 MEL         0.0711
      9 C9         41.7490   24.4670   53.8410 C.2       1 MEL         0.2296
     10 O0         42.3380   23.4110   53.8620 O.2       1 MEL        -0.3905
     11 N11        41.0590   24.8760   52.7780 N.am      1 MEL        -0.2468
     12 C12        41.3670   24.3570   51.3970 C.3       1 MEL         0.1357
     13 C13        42.8260   23.8700   51.1850 C.2       1 MEL         0.2038
     14 O14        43.7430   24.6850   51.3900 O.2       1 MEL        -0.3944
     15 N15        43.0530   22.6320   50.7290 N.am      1 MEL        -0.2737
     16 C16        44.4260   22.1590   50.4740 C.3       1 MEL         0.0645
     17 C17        44.7950   21.0400   51.4280 C.ar      1 MEL        -0.0210
     18 C18        45.0830   21.3600   52.7650 C.ar      1 MEL        -0.0584
     19 C19        45.4330   20.3360   53.6710 C.ar      1 MEL        -0.0633
     20 C20        45.5050   18.9900   53.2470 C.ar      1 MEL         0.0188
     21 C21        45.2370   18.6750   51.9070 C.ar      1 MEL        -0.0633
     22 C22        44.8830   19.6920   51.0110 C.ar      1 MEL        -0.0584
     23 C23        45.8740   17.9020   54.2140 C.cat     1 MEL         0.2318
     24 N24        46.6570   18.1780   55.2140 N.pl3     1 MEL        -0.2729
     25 N25        45.4050   16.6840   54.0250 N.pl3     1 MEL        -0.2729
     26 C26        41.0450   25.7450   50.8200 C.3       1 MEL         0.0084
     27 C27        41.2710   26.2580   52.2740 C.3       1 MEL         0.0411
     28 C28        44.0940   25.5280   55.5730 C.3       1 MEL         0.0214
     29 C29        45.2120   25.1060   56.4780 C.2       1 MEL         0.0813
     30 O30        45.0270   25.1420   57.7020 O.co2     1 MEL        -0.5645
     31 O31        46.3050   24.7400   55.9750 O.co2     1 MEL        -0.5645
     32 H1         39.9966   23.9551   55.5210 H         1 MEL         0.0381
     33 H2         39.0486   25.9519   54.2833 H         1 MEL         0.0271
     34 H3         39.2478   26.9241   55.7806 H         1 MEL         0.0271
     35 H4         37.5653   24.3420   55.5246 H         1 MEL         0.0265
     36 H5         36.9090   26.0120   55.6087 H         1 MEL         0.0265
     37 H6         36.8370   24.8683   57.8425 H         1 MEL         0.0265
     38 H7         37.9084   26.3099   57.8650 H         1 MEL         0.0265
     39 H8         38.8154   23.3874   57.5300 H         1 MEL         0.0265
     40 H9         38.9935   24.3820   59.0153 H         1 MEL         0.0265
     41 H10        40.4574   25.9837   57.7593 H         1 MEL         0.0271
     42 H11        41.1304   24.3186   57.7245 H         1 MEL         0.0271
     43 H12        42.8135   24.1122   56.2623 H         1 MEL         0.2049
     44 H13        42.5540   25.6105   56.8924 H         1 MEL         0.2049
     45 H14        41.6000   26.3521   54.8187 H         1 MEL         0.1102
     46 H15        40.6789   23.5686   51.0580 H         1 MEL         0.0803
     47 H16        42.2809   22.0197   50.5590 H         1 MEL         0.1878
     48 H17        45.1270   22.9955   50.6108 H         1 MEL         0.0683
     49 H18        44.4940   21.7889   49.4404 H         1 MEL         0.0683
     50 H19        45.0366   22.3900   53.0998 H         1 MEL         0.0557
     51 H20        45.6490   20.5849   54.7037 H         1 MEL         0.0599
     52 H21        45.3035   17.6483   51.5658 H         1 MEL         0.0599
     53 H22        44.6724   19.4405   49.9778 H         1 MEL         0.0557
     54 H23        46.9169   17.4398   55.8836 H         1 MEL         0.3180
     55 H24        47.0176   19.1349   55.3369 H         1 MEL         0.3180
     56 H25        44.7859   16.4889   53.2253 H         1 MEL         0.3180
     57 H26        45.6578   15.9278   54.6771 H         1 MEL         0.3180
     58 H27        40.0214   25.8655   50.4357 H         1 MEL         0.0332
     59 H28        41.7627   26.1196   50.0754 H         1 MEL         0.0332
     60 H29        42.2791   26.6568   52.4603 H         1 MEL         0.0526
     61 H30        40.5199   26.9842   52.6182 H         1 MEL         0.0526
     62 H31        44.1002   26.6255   55.4990 H         1 MEL         0.0989
     63 H32        44.2671   25.0923   54.5779 H         1 MEL         0.0989
@<TRIPOS>BOND
     1    1    2 1  
     2    1    6 1  
     3    1    8 1  
     4    2    3 1  
     5    3    4 1  
     6    4    5 1  
     7    5    6 1  
     8    8    7 1  
     9    7   28 1  
    10    8    9 1  
    11    9   10 2  
    12    9   11 am 
    13   11   12 1  
    14   11   27 1  
    15   12   13 1  
    16   12   26 1  
    17   13   14 2  
    18   13   15 am 
    19   15   16 1  
    20   16   17 1  
    21   17   18 ar 
    22   17   22 ar 
    23   18   19 ar 
    24   19   20 ar 
    25   20   21 ar 
    26   20   23 1  
    27   21   22 ar 
    28   23   24 ar 
    29   23   25 ar 
    30   26   27 1  
    31   28   29 1  
    32   29   30 ar 
    33   29   31 ar 
    34    1   32 1  
    35    2   33 1  
    36    2   34 1  
    37    3   35 1  
    38    3   36 1  
    39    4   37 1  
    40    4   38 1  
    41    5   39 1  
    42    5   40 1  
    43    6   41 1  
    44    6   42 1  
    45    7   43 1  
    46    7   44 1  
    47    8   45 1  
    48   12   46 1  
    49   15   47 1  
    50   16   48 1  
    51   16   49 1  
    52   18   50 1  
    53   19   51 1  
    54   21   52 1  
    55   22   53 1  
    56   24   54 1  
    57   24   55 1  
    58   25   56 1  
    59   25   57 1  
    60   26   58 1  
    61   26   59 1  
    62   27   60 1  
    63   27   61 1  
    64   28   62 1  
    65   28   63 1  
@<TRIPOS>SUBSTRUCTURE
     1 MEL         1

