### 
### Created by X-TOOL on Mon Sep 10 21:12:50 2018
### 

@<TRIPOS>MOLECULE
1k1y_ligand
   88    91     1     0     0
SMALL
GAST_HUCK


@<TRIPOS>ATOM
      1 C1A        -2.3020   58.4640   91.4770 C.3       1 ACR         0.0141
      2 C2A        -1.8660   59.5760   90.3780 C.3       1 ACR         0.1303
      3 C3A        -0.8760   60.5950   91.0570 C.3       1 ACR         0.1215
      4 C4A        -1.6140   61.3480   92.2200 C.3       1 ACR         0.1112
      5 C5A        -2.4050   60.4240   93.1780 C.2       1 ACR        -0.0200
      6 C6A        -2.8700   60.9790   94.5230 C.3       1 ACR         0.0719
      7 C7A        -2.7130   59.1290   92.8200 C.2       1 ACR        -0.0543
      8 O2A        -1.2660   58.9040   89.3080 O.3       1 ACR        -0.3821
      9 O3A        -0.4630   61.5620   90.1130 O.3       1 ACR        -0.3843
     10 O4A        -0.6090   62.2080   92.8250 O.3       1 ACR        -0.3780
     11 O6A        -3.9460   61.9000   94.2730 O.3       1 ACR        -0.3839
     12 C1B        -0.7920   53.2100   92.2520 C.3       1 ACR         0.1886
     13 C2B        -1.0570   53.8110   90.8370 C.3       1 ACR         0.1370
     14 C3B        -0.6710   55.3020   90.7580 C.3       1 ACR         0.1304
     15 C4B        -1.4690   56.0850   91.8370 C.3       1 ACR         0.0341
     16 C5B        -1.0590   55.4950   93.2600 C.3       1 ACR         0.1038
     17 C6B        -1.7620   56.1580   94.4310 C.3       1 ACR        -0.0332
     18 N4B        -1.1460   57.5380   91.7470 N.4       1 ACR         0.2433
     19 O2B        -0.3830   53.0070   89.8790 O.3       1 ACR        -0.3840
     20 O3B        -0.9700   55.7690   89.4390 O.3       1 ACR        -0.3834
     21 O5B        -1.3880   54.0240   93.2990 O.3       1 ACR        -0.3401
     22 C1C         3.2500   50.7820   94.9360 C.3       1 ACR         0.1884
     23 C2C         3.0790   50.4450   93.4210 C.3       1 ACR         0.1341
     24 C3C         2.4910   51.6670   92.6720 C.3       1 ACR         0.1144
     25 C4C         1.1030   51.9910   93.3180 C.3       1 ACR         0.1184
     26 C5C         1.3890   52.3810   94.8090 C.3       1 ACR         0.1134
     27 C6C         0.0970   52.7070   95.5950 C.3       1 ACR         0.0730
     28 O2C         4.3410   50.0470   92.9060 O.3       1 ACR        -0.3841
     29 O3C         2.3500   51.2870   91.3140 O.3       1 ACR        -0.3864
     30 O4C         0.4840   53.1440   92.7350 O.3       1 ACR        -0.3401
     31 O5C         2.0160   51.2480   95.5000 O.3       1 ACR        -0.3405
     32 O6C         0.3750   53.0740   96.9260 O.3       1 ACR        -0.3924
     33 C1D         7.3020   52.4550   98.0040 C.3       1 ACR         0.1854
     34 C2D         7.0760   50.9960   97.4840 C.3       1 ACR         0.1339
     35 C3D         6.3180   51.0190   96.1540 C.3       1 ACR         0.1144
     36 C4D         4.9660   51.7240   96.3640 C.3       1 ACR         0.1184
     37 C5D         5.2210   53.2140   96.8690 C.3       1 ACR         0.1134
     38 C6D         3.9260   54.0020   97.1230 C.3       1 ACR         0.0730
     39 O1D         8.1320   53.1600   97.1290 O.3       1 ACR        -0.3649
     40 O2D         8.3540   50.3510   97.3380 O.3       1 ACR        -0.3841
     41 O3D         6.1230   49.6580   95.7030 O.3       1 ACR        -0.3864
     42 O4D         4.2330   51.7500   95.1130 O.3       1 ACR        -0.3401
     43 O5D         6.0000   53.1740   98.1390 O.3       1 ACR        -0.3407
     44 O6D         3.1700   53.4700   98.2160 O.3       1 ACR        -0.3924
     45 H1         -3.1518   57.8871   91.0833 H         1 ACR         0.0950
     46 H2         -2.7529   60.1181   90.0180 H         1 ACR         0.0694
     47 H3         -0.0020   60.0556   91.4509 H         1 ACR         0.0671
     48 H4         -2.3674   62.0059   91.7623 H         1 ACR         0.0769
     49 H5         -2.0388   61.5012   95.0193 H         1 ACR         0.0706
     50 H6         -3.2224   60.1579   95.1645 H         1 ACR         0.0706
     51 H7         -3.2843   58.5301   93.5278 H         1 ACR         0.0299
     52 H8         -0.5099   58.4221   89.6221 H         1 ACR         0.2103
     53 H9          0.1240   62.1809   90.5314 H         1 ACR         0.2102
     54 H10        -0.1894   62.7270   92.1489 H         1 ACR         0.2130
     55 H11        -3.6357   62.6040   93.7157 H         1 ACR         0.2125
     56 H12        -1.2258   52.1992   92.2504 H         1 ACR         0.0938
     57 H13        -2.1361   53.7446   90.6342 H         1 ACR         0.0672
     58 H14         0.4058   55.4197   90.9496 H         1 ACR         0.0679
     59 H15        -2.5483   55.9452   91.6774 H         1 ACR         0.0903
     60 H16         0.0255   55.6293   93.3858 H         1 ACR         0.0652
     61 H17        -1.4252   55.6954   95.3705 H         1 ACR         0.0257
     62 H18        -2.8493   56.0277   94.3274 H         1 ACR         0.0257
     63 H19        -1.5208   57.2311   94.4436 H         1 ACR         0.0257
     64 H20        -0.7292   57.8145   92.6222 H         1 ACR         0.2029
     65 H21        -0.4764   57.6580   91.0032 H         1 ACR         0.2029
     66 H22         0.5546   53.0691   90.0186 H         1 ACR         0.2101
     67 H23        -0.7436   56.6891   89.3711 H         1 ACR         0.2102
     68 H24         3.5555   49.8667   95.4641 H         1 ACR         0.0938
     69 H25         2.3767   49.6050   93.3158 H         1 ACR         0.0671
     70 H26         3.1581   52.5377   92.7550 H         1 ACR         0.0648
     71 H27         0.4363   51.1190   93.2462 H         1 ACR         0.0651
     72 H28         2.0594   53.2529   94.8265 H         1 ACR         0.0647
     73 H29        -0.5518   51.8187   95.5984 H         1 ACR         0.0584
     74 H30        -0.4227   53.5389   95.0971 H         1 ACR         0.0584
     75 H31         4.2483   49.8124   91.9901 H         1 ACR         0.2101
     76 H32         3.2062   51.0969   90.9490 H         1 ACR         0.2100
     77 H33         0.8196   52.3580   97.3645 H         1 ACR         0.2095
     78 H34         7.7847   52.4058   98.9912 H         1 ACR         0.0935
     79 H35         6.4776   50.4401   98.2208 H         1 ACR         0.0671
     80 H36         6.9031   51.5705   95.4033 H         1 ACR         0.0648
     81 H37         4.3810   51.1773   97.1183 H         1 ACR         0.0651
     82 H38         5.8050   53.7428   96.1013 H         1 ACR         0.0647
     83 H39         3.3067   53.9665   96.2146 H         1 ACR         0.0584
     84 H40         4.1864   55.0466   97.3487 H         1 ACR         0.0584
     85 H41         8.2846   54.0324   97.4728 H         1 ACR         0.2126
     86 H42         8.8743   50.8227   96.6983 H         1 ACR         0.2101
     87 H43         5.6486   49.6632   94.8800 H         1 ACR         0.2100
     88 H44         3.6942   53.5024   99.0076 H         1 ACR         0.2095
@<TRIPOS>BOND
     1    1    2 1  
     2    1    7 1  
     3   18    1 1  
     4    2    3 1  
     5    2    8 1  
     6    3    4 1  
     7    3    9 1  
     8    5    4 1  
     9    4   10 1  
    10    5    6 1  
    11    7    5 2  
    12    6   11 1  
    13   12   13 1  
    14   13   14 1  
    15   14   15 1  
    16   16   15 1  
    17   15   18 1  
    18   16   17 1  
    19   21   16 1  
    20   13   19 1  
    21   14   20 1  
    22   12   21 1  
    23   22   23 1  
    24   22   31 1  
    25   42   22 1  
    26   23   24 1  
    27   23   28 1  
    28   24   25 1  
    29   24   29 1  
    30   26   25 1  
    31   25   30 1  
    32   26   27 1  
    33   31   26 1  
    34   27   32 1  
    35   30   12 1  
    36   34   33 1  
    37   33   39 1  
    38   35   34 1  
    39   34   40 1  
    40   36   35 1  
    41   35   41 1  
    42   36   37 1  
    43   42   36 1  
    44   37   38 1  
    45   37   43 1  
    46   38   44 1  
    47   43   33 1  
    48    1   45 1  
    49    2   46 1  
    50    3   47 1  
    51    4   48 1  
    52    6   49 1  
    53    6   50 1  
    54    7   51 1  
    55    8   52 1  
    56    9   53 1  
    57   10   54 1  
    58   11   55 1  
    59   12   56 1  
    60   13   57 1  
    61   14   58 1  
    62   15   59 1  
    63   16   60 1  
    64   17   61 1  
    65   17   62 1  
    66   17   63 1  
    67   18   64 1  
    68   18   65 1  
    69   19   66 1  
    70   20   67 1  
    71   22   68 1  
    72   23   69 1  
    73   24   70 1  
    74   25   71 1  
    75   26   72 1  
    76   27   73 1  
    77   27   74 1  
    78   28   75 1  
    79   29   76 1  
    80   32   77 1  
    81   33   78 1  
    82   34   79 1  
    83   35   80 1  
    84   36   81 1  
    85   37   82 1  
    86   38   83 1  
    87   38   84 1  
    88   39   85 1  
    89   40   86 1  
    90   41   87 1  
    91   44   88 1  
@<TRIPOS>SUBSTRUCTURE
     1 ACR         1

