### 
### Created by X-TOOL on Mon Sep 10 21:12:49 2018
### 

@<TRIPOS>MOLECULE
1k21_ligand
   70    71     1     0     0
SMALL
GAST_HUCK


@<TRIPOS>ATOM
      1 C1         16.1560  -11.6220   20.2070 C.2       1 IGN         0.2019
      2 O2         15.4510  -12.5640   19.8270 O.2       1 IGN        -0.3945
      3 N3         15.6340  -10.3970   20.3990 N.am      1 IGN        -0.2849
      4 C4         14.2220  -10.0260   20.1930 C.3       1 IGN         0.0341
      5 C5         13.4950   -9.7650   21.5200 C.3       1 IGN         0.0004
      6 C6         12.0090  -10.0930   21.4210 C.3       1 IGN         0.0644
      7 N7         11.6090  -11.1220   22.3900 N.pl3     1 IGN        -0.2722
      8 C8         11.0030  -10.8830   23.6710 C.cat     1 IGN         0.2882
      9 N9         10.6870  -11.9160   24.4420 N.pl3     1 IGN        -0.2849
     10 N10        10.7580   -9.6370   24.0780 N.pl3     1 IGN        -0.2849
     11 N11        17.9500  -13.2540   21.0630 N.am      1 IGN        -0.2471
     12 C12        17.6790  -11.8530   20.4870 C.3       1 IGN         0.1337
     13 C13        18.4230  -11.6090   19.1400 C.3       1 IGN        -0.0121
     14 C14        19.8990  -12.0490   19.1810 C.3       1 IGN        -0.0470
     15 C15        20.0010  -13.5800   19.4210 C.3       1 IGN        -0.0321
     16 C16        18.8870  -14.1930   20.3230 C.3       1 IGN         0.0369
     17 O31        16.5740  -12.9000   22.8600 O.2       1 IGN        -0.3905
     18 C32        17.3450  -13.6610   22.2510 C.2       1 IGN         0.2293
     19 C33        17.5520  -15.0700   22.9300 C.3       1 IGN         0.0685
     20 C34        17.9260  -15.0000   24.4670 C.3       1 IGN         0.0108
     21 C51        20.4370  -14.8210   23.5540 C.3       1 IGN        -0.0499
     22 C52        19.4520  -14.7400   24.8050 C.3       1 IGN        -0.0338
     23 C53        19.7200  -13.3720   25.5260 C.3       1 IGN        -0.0499
     24 C54        21.2120  -13.2650   25.9910 C.3       1 IGN        -0.0528
     25 C55        22.1600  -13.3700   24.7530 C.3       1 IGN        -0.0530
     26 C56        21.9280  -14.7230   24.0130 C.3       1 IGN        -0.0528
     27 N21        16.2730  -15.8300   22.8380 N.4       1 IGN         0.2577
     28 C22        15.6600  -16.2720   21.5460 C.3       1 IGN         0.0214
     29 C23        14.2430  -16.7860   21.7690 C.2       1 IGN         0.0813
     30 O24        13.8040  -16.9480   22.9320 O.co2     1 IGN        -0.5645
     31 O25        13.5190  -17.0470   20.7800 O.co2     1 IGN        -0.5645
     32 H1         16.2561   -9.6774   20.7074 H         1 IGN         0.1851
     33 H2         13.7131  -10.8458   19.6648 H         1 IGN         0.0521
     34 H3         14.1806   -9.1134   19.5802 H         1 IGN         0.0521
     35 H4         13.6091   -8.7040   21.7867 H         1 IGN         0.0318
     36 H5         13.9470  -10.3908   22.3036 H         1 IGN         0.0318
     37 H6         11.7921  -10.4571   20.4059 H         1 IGN         0.0689
     38 H7         11.4293   -9.1783   21.6142 H         1 IGN         0.0689
     39 H8         11.7781  -12.1036   22.1276 H         1 IGN         0.2642
     40 H9         10.2522  -11.7578   25.3622 H         1 IGN         0.2615
     41 H10        10.8765  -12.8759   24.1201 H         1 IGN         0.2615
     42 H11        11.0059   -8.8400   23.4745 H         1 IGN         0.2615
     43 H12        10.3209   -9.4716   24.9959 H         1 IGN         0.2615
     44 H13        18.0242  -11.1126   21.2236 H         1 IGN         0.0802
     45 H14        18.3836  -10.5347   18.9070 H         1 IGN         0.0312
     46 H15        17.9101  -12.1750   18.3484 H         1 IGN         0.0312
     47 H16        20.4126  -11.5193   19.9968 H         1 IGN         0.0268
     48 H17        20.3783  -11.7996   18.2229 H         1 IGN         0.0268
     49 H18        20.9721  -13.7849   19.8953 H         1 IGN         0.0285
     50 H19        19.9581  -14.0802   18.4423 H         1 IGN         0.0285
     51 H20        19.3883  -14.8136   21.0803 H         1 IGN         0.0524
     52 H21        18.2640  -14.8316   19.6795 H         1 IGN         0.0524
     53 H22        18.3491  -15.6045   22.3925 H         1 IGN         0.1099
     54 H23        17.6392  -15.9576   24.9261 H         1 IGN         0.0348
     55 H24        17.3391  -14.1865   24.9184 H         1 IGN         0.0348
     56 H25        20.2161  -13.9909   22.8669 H         1 IGN         0.0268
     57 H26        20.2820  -15.7781   23.0345 H         1 IGN         0.0268
     58 H27        19.7462  -15.5394   25.5009 H         1 IGN         0.0304
     59 H28        19.0630  -13.2938   26.4047 H         1 IGN         0.0268
     60 H29        19.5005  -12.5493   24.8296 H         1 IGN         0.0268
     61 H30        21.4355  -14.0821   26.6927 H         1 IGN         0.0265
     62 H31        21.3703  -12.2983   26.4914 H         1 IGN         0.0265
     63 H32        23.2057  -13.3143   25.0898 H         1 IGN         0.0265
     64 H33        21.9519  -12.5382   24.0639 H         1 IGN         0.0265
     65 H34        22.1570  -15.5564   24.6935 H         1 IGN         0.0265
     66 H35        22.5861  -14.7766   23.1332 H         1 IGN         0.0265
     67 H36        15.5788  -15.2545   23.2884 H         1 IGN         0.2049
     68 H37        16.4137  -16.6703   23.3766 H         1 IGN         0.2049
     69 H38        16.2719  -17.0770   21.1129 H         1 IGN         0.0989
     70 H39        15.6296  -15.4201   20.8508 H         1 IGN         0.0989
@<TRIPOS>BOND
     1   12    1 1  
     2    1    3 am 
     3    1    2 2  
     4    3    4 1  
     5    4    5 1  
     6    5    6 1  
     7    6    7 1  
     8    7    8 ar 
     9    8   10 ar 
    10    8    9 ar 
    11   12   11 1  
    12   12   13 1  
    13   13   14 1  
    14   14   15 1  
    15   15   16 1  
    16   11   16 1  
    17   11   18 am 
    18   18   19 1  
    19   18   17 2  
    20   19   27 1  
    21   19   20 1  
    22   20   22 1  
    23   22   21 1  
    24   22   23 1  
    25   23   24 1  
    26   24   25 1  
    27   25   26 1  
    28   21   26 1  
    29   27   28 1  
    30   28   29 1  
    31   29   31 ar 
    32   29   30 ar 
    33    3   32 1  
    34    4   33 1  
    35    4   34 1  
    36    5   35 1  
    37    5   36 1  
    38    6   37 1  
    39    6   38 1  
    40    7   39 1  
    41    9   40 1  
    42    9   41 1  
    43   10   42 1  
    44   10   43 1  
    45   12   44 1  
    46   13   45 1  
    47   13   46 1  
    48   14   47 1  
    49   14   48 1  
    50   15   49 1  
    51   15   50 1  
    52   16   51 1  
    53   16   52 1  
    54   19   53 1  
    55   20   54 1  
    56   20   55 1  
    57   21   56 1  
    58   21   57 1  
    59   22   58 1  
    60   23   59 1  
    61   23   60 1  
    62   24   61 1  
    63   24   62 1  
    64   25   63 1  
    65   25   64 1  
    66   26   65 1  
    67   26   66 1  
    68   27   67 1  
    69   27   68 1  
    70   28   69 1  
    71   28   70 1  
@<TRIPOS>SUBSTRUCTURE
     1 IGN         1

