### 
### Created by X-TOOL on Mon Sep 10 21:12:49 2018
### 

@<TRIPOS>MOLECULE
1k22_ligand
   63    65     1     0     0
SMALL
GAST_HUCK


@<TRIPOS>ATOM
      1 C1         18.7400  -14.4090   24.4190 C.3       1 MEL         0.0196
      2 C2         18.9060  -15.7460   25.2000 C.3       1 MEL        -0.0429
      3 C3         19.4890  -15.5290   26.6320 C.3       1 MEL        -0.0525
      4 C4         20.8110  -14.7180   26.5380 C.3       1 MEL        -0.0530
      5 C5         20.5890  -13.3450   25.8180 C.3       1 MEL        -0.0525
      6 C6         20.0880  -13.6120   24.3660 C.3       1 MEL        -0.0429
      7 N7         17.0410  -15.5660   22.9810 N.4       1 MEL         0.2579
      8 C8         18.2480  -14.6920   22.9380 C.3       1 MEL         0.0711
      9 C9         17.8690  -13.4020   22.2810 C.2       1 MEL         0.2296
     10 O0         16.8270  -12.7900   22.6660 O.2       1 MEL        -0.3905
     11 N11        18.6150  -12.9120   21.2930 N.am      1 MEL        -0.2468
     12 C12        18.4550  -11.6940   20.4810 C.3       1 MEL         0.1357
     13 C13        17.0860  -11.8150   19.8150 C.2       1 MEL         0.2038
     14 O14        16.8180  -12.8260   19.1830 O.2       1 MEL        -0.3944
     15 N15        16.1420  -10.7990   19.9520 N.am      1 MEL        -0.2737
     16 C16        14.7890  -11.0010   19.4880 C.3       1 MEL         0.0645
     17 C17        13.8470  -10.9690   20.6190 C.ar      1 MEL        -0.0210
     18 C18        13.2900   -9.7430   21.0060 C.ar      1 MEL        -0.0584
     19 C19        12.3680   -9.6780   22.1010 C.ar      1 MEL        -0.0633
     20 C20        12.0130  -10.8460   22.8000 C.ar      1 MEL         0.0188
     21 C21        12.5810  -12.1100   22.4090 C.ar      1 MEL        -0.0633
     22 C22        13.5050  -12.1640   21.3070 C.ar      1 MEL        -0.0584
     23 C23        11.1080  -10.7790   23.8690 C.cat     1 MEL         0.2318
     24 N24        10.9490   -9.6150   24.5710 N.pl3     1 MEL        -0.2729
     25 N25        10.3630  -11.8800   24.2150 N.pl3     1 MEL        -0.2729
     26 C26        19.7830  -11.9190   19.8420 C.3       1 MEL         0.0084
     27 C27        19.8320  -13.2830   20.5760 C.3       1 MEL         0.0411
     28 C28        16.4900  -16.1470   21.7190 C.3       1 MEL         0.0214
     29 C29        14.9780  -16.4710   21.8140 C.2       1 MEL         0.0813
     30 O30        14.3890  -16.5990   23.0010 O.co2     1 MEL        -0.5645
     31 O31        14.2770  -16.6270   20.7220 O.co2     1 MEL        -0.5645
     32 H1         17.9863  -13.7954   24.9342 H         1 MEL         0.0381
     33 H2         19.5863  -16.4021   24.6371 H         1 MEL         0.0271
     34 H3         17.9213  -16.2282   25.2886 H         1 MEL         0.0271
     35 H4         19.6905  -16.5052   27.0973 H         1 MEL         0.0265
     36 H5         18.7619  -14.9745   27.2434 H         1 MEL         0.0265
     37 H6         21.5506  -15.3034   25.9720 H         1 MEL         0.0265
     38 H7         21.1900  -14.5322   27.5538 H         1 MEL         0.0265
     39 H8         21.5368  -12.7877   25.7850 H         1 MEL         0.0265
     40 H9         19.8373  -12.7579   26.3659 H         1 MEL         0.0265
     41 H10        19.9276  -12.6533   23.8511 H         1 MEL         0.0271
     42 H11        20.8408  -14.1999   23.8204 H         1 MEL         0.0271
     43 H12        16.3021  -15.0205   23.3963 H         1 MEL         0.2049
     44 H13        17.2656  -16.3419   23.5840 H         1 MEL         0.2049
     45 H14        19.0494  -15.1834   22.3668 H         1 MEL         0.1102
     46 H15        18.4641  -10.7526   21.0499 H         1 MEL         0.0803
     47 H16        16.4015   -9.9293   20.3719 H         1 MEL         0.1878
     48 H17        14.7200  -11.9777   18.9867 H         1 MEL         0.0683
     49 H18        14.5274  -10.2042   18.7762 H         1 MEL         0.0683
     50 H19        13.5583   -8.8377   20.4736 H         1 MEL         0.0557
     51 H20        11.9422   -8.7245   22.3920 H         1 MEL         0.0599
     52 H21        12.3142  -13.0157   22.9416 H         1 MEL         0.0599
     53 H22        13.9374  -13.1107   21.0038 H         1 MEL         0.0557
     54 H23        10.2823   -9.5734   25.3550 H         1 MEL         0.3180
     55 H24        11.4960   -8.7806   24.3153 H         1 MEL         0.3180
     56 H25        10.4741  -12.7615   23.6939 H         1 MEL         0.3180
     57 H26         9.6933  -11.8241   24.9956 H         1 MEL         0.3180
     58 H27        20.5644  -11.2068   20.1456 H         1 MEL         0.0332
     59 H28        19.7576  -11.9897   18.7446 H         1 MEL         0.0332
     60 H29        19.7208  -14.1564   19.9166 H         1 MEL         0.0526
     61 H30        20.7133  -13.4194   21.2199 H         1 MEL         0.0526
     62 H31        17.0344  -17.0758   21.4933 H         1 MEL         0.0989
     63 H32        16.6435  -15.4246   20.9038 H         1 MEL         0.0989
@<TRIPOS>BOND
     1    8    1 1  
     2    1    6 1  
     3    1    2 1  
     4    2    3 1  
     5    3    4 1  
     6    4    5 1  
     7    6    5 1  
     8    8    7 1  
     9    8    9 1  
    10    9   11 am 
    11    9   10 2  
    12   11   27 1  
    13   11   12 1  
    14   12   26 1  
    15   12   13 1  
    16   13   15 am 
    17   13   14 2  
    18   15   16 1  
    19   16   17 1  
    20   17   22 ar 
    21   17   18 ar 
    22   18   19 ar 
    23   19   20 ar 
    24   20   23 1  
    25   20   21 ar 
    26   22   21 ar 
    27   23   25 ar 
    28   23   24 ar 
    29   27   26 1  
    30    7   28 1  
    31   28   29 1  
    32   29   31 ar 
    33   29   30 ar 
    34    1   32 1  
    35    2   33 1  
    36    2   34 1  
    37    3   35 1  
    38    3   36 1  
    39    4   37 1  
    40    4   38 1  
    41    5   39 1  
    42    5   40 1  
    43    6   41 1  
    44    6   42 1  
    45    7   43 1  
    46    7   44 1  
    47    8   45 1  
    48   12   46 1  
    49   15   47 1  
    50   16   48 1  
    51   16   49 1  
    52   18   50 1  
    53   19   51 1  
    54   21   52 1  
    55   22   53 1  
    56   24   54 1  
    57   24   55 1  
    58   25   56 1  
    59   25   57 1  
    60   26   58 1  
    61   26   59 1  
    62   27   60 1  
    63   27   61 1  
    64   28   62 1  
    65   28   63 1  
@<TRIPOS>SUBSTRUCTURE
     1 MEL         1

