### 
### Created by X-TOOL on Mon Sep 10 21:12:48 2018
### 

@<TRIPOS>MOLECULE
1k2i_ligand
   20    20     1     0     0
SMALL
GAST_HUCK


@<TRIPOS>ATOM
      1 CA2        27.6610    1.8660   38.5860 C.2       1 SN1        -0.0223
      2 CB2        26.9660    2.7040   39.3520 C.2       1 SN1        -0.0510
      3 CG         27.0890    2.9510   40.7920 C.ar      1 SN1         0.0091
      4 CD1        26.6240    4.1620   41.3260 C.ar      1 SN1         0.0983
      5 CE1        26.7160    4.3990   42.6790 C.ar      1 SN1         0.0026
      6 CD2        27.6540    2.0020   41.6360 C.ar      1 SN1        -0.0623
      7 CE2        27.7440    2.2420   43.0020 C.ar      1 SN1        -0.0366
      8 CZ         27.2690    3.4470   43.5130 C.ar      1 SN1         0.0865
      9 OH1        27.3370    3.7200   44.8580 O.3       1 SN1        -0.3312
     10 OH2        26.0660    5.1130   40.5050 O.3       1 SN1        -0.3286
     11 C2         27.3410    1.7760   37.1560 C.2       1 SN1         0.1016
     12 O2         26.9590    0.7370   36.6120 O.2       1 SN1        -0.3782
     13 H1         28.4553    1.2561   39.0138 H         1 SN1         0.0527
     14 H2         26.2015    3.2856   38.8389 H         1 SN1         0.0729
     15 H3         26.3539    5.3342   43.0904 H         1 SN1         0.0479
     16 H4         28.0264    1.0699   41.2266 H         1 SN1         0.0609
     17 H5         28.1788    1.4999   43.6618 H         1 SN1         0.0481
     18 H6         28.2446    3.7025   45.1380 H         1 SN1         0.2508
     19 H7         26.5678    5.9173   40.5672 H         1 SN1         0.2520
     20 H8         27.4462    2.6713   36.5450 H         1 SN1         0.1268
@<TRIPOS>BOND
     1    1    2 2  
     2    1   11 1  
     3    2    3 1  
     4    3    4 ar 
     5    3    6 ar 
     6    4    5 ar 
     7    4   10 1  
     8    5    8 ar 
     9    6    7 ar 
    10    7    8 ar 
    11    8    9 1  
    12   11   12 2  
    13    1   13 1  
    14    2   14 1  
    15    5   15 1  
    16    6   16 1  
    17    7   17 1  
    18    9   18 1  
    19   10   19 1  
    20   11   20 1  
@<TRIPOS>SUBSTRUCTURE
     1 SN1         1

