### 
### Created by X-TOOL on Mon Sep 10 21:12:49 2018
### 

@<TRIPOS>MOLECULE
1k3t_ligand
   47    49     1     0     0
SMALL
GAST_HUCK


@<TRIPOS>ATOM
      1 C1         26.4600    9.6930    7.8100 C.ar      1 BRZ         0.0412
      2 C2         27.8250    9.8620    7.9860 C.ar      1 BRZ        -0.0404
      3 C3         28.1220   10.8250    8.9560 C.ar      1 BRZ         0.0036
      4 C4         27.1210   11.5020    9.6200 C.ar      1 BRZ         0.1130
      5 C5         25.7470   11.3070    9.4130 C.ar      1 BRZ         0.0175
      6 C6         25.3840   10.3520    8.4590 C.ar      1 BRZ         0.1271
      7 O7         24.0140   10.0930    8.1850 O.3       1 BRZ        -0.2622
      8 C8         23.5040    9.1440    7.2600 C.3       1 BRZ         0.2043
      9 C9         24.7270    8.4850    6.5790 C.2       1 BRZ        -0.0476
     10 C10        26.0380    8.6720    6.7800 C.2       1 BRZ        -0.0263
     11 O11        27.5970   12.4240   10.5220 O.3       1 BRZ        -0.2988
     12 C12        29.0370   12.3260   10.5190 C.3       1 BRZ         0.1215
     13 C13        29.4660   11.2920    9.4280 C.3       1 BRZ         0.0151
     14 O14        22.3140    8.8240    6.9000 O.3       1 BRZ        -0.3513
     15 C15        24.3570    7.3970    5.5230 C.3       1 BRZ        -0.0848
     16 C16        25.5250    6.4030    5.1820 C.3       1 BRZ        -0.1219
     17 C17        24.1130    8.1880    4.2430 C.3       1 BRZ        -0.1219
     18 C18        23.3900    6.5730    6.3380 C.2       1 BRZ        -0.1426
     19 C19        23.0800    6.3460    7.6070 C.2       1 BRZ        -0.0863
     20 C20        29.9000   13.5870   10.7530 C.3       1 BRZ         0.0932
     21 O21        29.4600   14.9070   10.4370 O.3       1 BRZ        -0.3859
     22 C22        30.3940   13.6950   12.2080 C.3       1 BRZ        -0.0333
     23 C23        31.1440   13.2520    9.8870 C.3       1 BRZ        -0.0333
     24 H1         28.5772    9.3100    7.4341 H         1 BRZ         0.0624
     25 H2         25.0033   11.8695    9.9659 H         1 BRZ         0.0511
     26 H3         23.4397    8.3800    8.0487 H         1 BRZ         0.1139
     27 H4         26.7779    8.1046    6.2174 H         1 BRZ         0.1035
     28 H5         29.2351   11.7788   11.4524 H         1 BRZ         0.0709
     29 H6         30.0383   11.7687    8.6186 H         1 BRZ         0.0429
     30 H7         30.0550   10.4683    9.8576 H         1 BRZ         0.0429
     31 H8         21.8807    9.5846    6.5310 H         1 BRZ         0.2163
     32 H9         25.1795    5.6741    4.4341 H         1 BRZ         0.0008
     33 H10        25.8338    5.8730    6.0951 H         1 BRZ         0.0008
     34 H11        26.3793    6.9659    4.7780 H         1 BRZ         0.0008
     35 H12        23.3004    8.9108    4.4079 H         1 BRZ         0.0008
     36 H13        23.8315    7.4982    3.4337 H         1 BRZ         0.0008
     37 H14        25.0310    8.7259    3.9637 H         1 BRZ         0.0008
     38 H15        22.7505    5.9840    5.6823 H         1 BRZ         0.0399
     39 H16        22.2809    5.6494    7.8561 H         1 BRZ         0.0932
     40 H17        23.6245    6.8562    8.4002 H         1 BRZ         0.0932
     41 H18        30.1427   15.5290   10.6597 H         1 BRZ         0.2103
     42 H19        31.0010   14.6052   12.3225 H         1 BRZ         0.0258
     43 H20        31.0045   12.8138   12.4543 H         1 BRZ         0.0258
     44 H21        29.5293   13.7432   12.8862 H         1 BRZ         0.0258
     45 H22        31.8691   14.0766    9.9523 H         1 BRZ         0.0258
     46 H23        30.8361   13.1167    8.8397 H         1 BRZ         0.0258
     47 H24        31.6085   12.3254   10.2553 H         1 BRZ         0.0258
@<TRIPOS>BOND
     1    1    2 ar 
     2    1    6 ar 
     3    1   10 1  
     4    2    3 ar 
     5    3    4 ar 
     6    3   13 1  
     7    4    5 ar 
     8    4   11 1  
     9    5    6 ar 
    10    6    7 1  
    11    7    8 1  
    12    8    9 1  
    13    8   14 1  
    14    9   10 2  
    15    9   15 1  
    16   11   12 1  
    17   12   13 1  
    18   12   20 1  
    19   15   16 1  
    20   15   17 1  
    21   15   18 1  
    22   18   19 2  
    23   20   21 1  
    24   20   22 1  
    25   20   23 1  
    26    2   24 1  
    27    5   25 1  
    28    8   26 1  
    29   10   27 1  
    30   12   28 1  
    31   13   29 1  
    32   13   30 1  
    33   14   31 1  
    34   16   32 1  
    35   16   33 1  
    36   16   34 1  
    37   17   35 1  
    38   17   36 1  
    39   17   37 1  
    40   18   38 1  
    41   19   39 1  
    42   19   40 1  
    43   21   41 1  
    44   22   42 1  
    45   22   43 1  
    46   22   44 1  
    47   23   45 1  
    48   23   46 1  
    49   23   47 1  
@<TRIPOS>SUBSTRUCTURE
     1 BRZ         1

