### 
### Created by X-TOOL on Mon Sep 10 21:12:49 2018
### 

@<TRIPOS>MOLECULE
1k4g_ligand
   32    34     1     0     0
SMALL
GAST_HUCK


@<TRIPOS>ATOM
      1 C1         17.3030   17.2870   18.5860 C.ar      1 AIQ        -0.0462
      2 C2         16.2560   17.0760   19.5090 C.ar      1 AIQ        -0.0327
      3 C9         14.8190   16.6670   19.0990 C.3       1 AIQ         0.0425
      4 C3         16.5320   17.2430   20.8840 C.ar      1 AIQ        -0.0035
      5 N3         15.5600   17.0610   21.8200 N.2       1 AIQ        -0.3160
      6 C8         15.7440   17.1950   23.0860 C.2       1 AIQ         0.2258
      7 N2         14.7420   16.9990   23.9050 N.pl3     1 AIQ        -0.2829
      8 N1         16.9300   17.5320   23.5920 N.am      1 AIQ        -0.1815
      9 C7         17.9840   17.7520   22.8230 C.2       1 AIQ         0.2280
     10 O1         19.0790   18.0620   23.2770 O.2       1 AIQ        -0.3881
     11 C4         17.8250   17.6090   21.3180 C.ar      1 AIQ         0.0394
     12 C5         18.8600   17.8140   20.3860 C.ar      1 AIQ        -0.0418
     13 C6         18.5980   17.6560   19.0090 C.ar      1 AIQ         0.0240
     14 N4         19.5820   17.8530   18.0990 N.pl3     1 AIQ        -0.3425
     15 S1         14.6390   14.9630   18.4200 S.3       1 AIQ        -0.0360
     16 C10        14.5470   15.4380   16.6960 C.2       1 AIQ         0.1774
     17 N5         15.3680   16.3400   16.1280 N.2       1 AIQ        -0.3291
     18 N6         13.7510   15.0380   15.8040 N.pl3     1 AIQ        -0.2554
     19 C11        15.0030   16.4360   14.8490 C.2       1 AIQ        -0.0359
     20 C12        13.9740   15.6440   14.5320 C.2       1 AIQ         0.0259
     21 H1         17.1077   17.1627   17.5270 H         1 AIQ         0.0468
     22 H2         14.4713   17.3752   18.3325 H         1 AIQ         0.0553
     23 H3         14.1776   16.7460   19.9892 H         1 AIQ         0.0553
     24 H4         13.8172   16.7379   23.5342 H         1 AIQ         0.1888
     25 H5         14.8783   17.1058   24.9203 H         1 AIQ         0.1888
     26 H6         17.0263   17.6213   24.5833 H         1 AIQ         0.2497
     27 H7         19.8518   18.0914   20.7243 H         1 AIQ         0.0472
     28 H8         19.3855   17.7364   17.0947 H         1 AIQ         0.1692
     29 H9         20.5266   18.1194   18.4114 H         1 AIQ         0.1692
     30 H10        13.0119   14.3417   15.9768 H         1 AIQ         0.2380
     31 H11        15.4944   17.0942   14.1340 H         1 AIQ         0.0408
     32 H12        13.4584   15.5030   13.5832 H         1 AIQ         0.0794
@<TRIPOS>BOND
     1    1   13 ar 
     2    1    2 ar 
     3    2    4 ar 
     4    2    3 1  
     5    3   15 1  
     6   15   16 1  
     7   16   18 1  
     8   16   17 2  
     9   17   19 1  
    10   19   20 2  
    11   20   18 1  
    12    4   11 ar 
    13    4    5 1  
    14    5    6 2  
    15    6    8 1  
    16    6    7 1  
    17    8    9 am 
    18    9   11 1  
    19    9   10 2  
    20   11   12 ar 
    21   12   13 ar 
    22   13   14 1  
    23    1   21 1  
    24    3   22 1  
    25    3   23 1  
    26    7   24 1  
    27    7   25 1  
    28    8   26 1  
    29   12   27 1  
    30   14   28 1  
    31   14   29 1  
    32   18   30 1  
    33   19   31 1  
    34   20   32 1  
@<TRIPOS>SUBSTRUCTURE
     1 AIQ         1

