### 
### Created by X-TOOL on Mon Sep 10 21:12:49 2018
### 

@<TRIPOS>MOLECULE
1k4h_ligand
   34    35     1     0     0
SMALL
GAST_HUCK


@<TRIPOS>ATOM
      1 C10        12.9290   14.6350   18.0240 C.3       1 APQ        -0.0047
      2 C11        12.3480   15.9970   17.5590 C.3       1 APQ        -0.0467
      3 C12        11.7970   15.8360   16.1110 C.3       1 APQ        -0.0645
      4 S1         14.6910   14.8460   18.4000 S.3       1 APQ        -0.1485
      5 C9         14.9260   16.5260   19.1510 C.3       1 APQ         0.0228
      6 C2         16.3500   16.9360   19.6250 C.ar      1 APQ        -0.0355
      7 C3         16.5660   17.1270   21.0140 C.ar      1 APQ        -0.0037
      8 N3         15.5460   16.9320   21.9280 N.2       1 APQ        -0.3160
      9 C8         15.6810   17.0890   23.2010 C.2       1 APQ         0.2258
     10 N1         16.8540   17.4550   23.7440 N.am      1 APQ        -0.1815
     11 C7         17.9440   17.6790   23.0040 C.2       1 APQ         0.2280
     12 O1         19.0240   18.0180   23.5010 O.2       1 APQ        -0.3881
     13 C4         17.8510   17.5110   21.4910 C.ar      1 APQ         0.0394
     14 C5         18.9310   17.7190   20.5890 C.ar      1 APQ        -0.0418
     15 C6         18.7120   17.5300   19.1980 C.ar      1 APQ         0.0239
     16 N4         19.7060   17.7150   18.2950 N.pl3     1 APQ        -0.3425
     17 C1         17.4320   17.1480   18.7450 C.ar      1 APQ        -0.0464
     18 N2         14.6500   16.8820   23.9810 N.pl3     1 APQ        -0.2829
     19 H1         12.3972   14.2949   18.9249 H         1 APQ         0.0378
     20 H2         12.8087   13.8898   17.2239 H         1 APQ         0.0378
     21 H3         13.1395   16.7607   17.5711 H         1 APQ         0.0271
     22 H4         11.5340   16.3018   18.2331 H         1 APQ         0.0271
     23 H5         11.3815   16.7950   15.7681 H         1 APQ         0.0230
     24 H6         11.0074   15.0702   16.1022 H         1 APQ         0.0230
     25 H7         12.6130   15.5291   15.4402 H         1 APQ         0.0230
     26 H8         14.2629   16.5857   20.0266 H         1 APQ         0.0522
     27 H9         14.6089   17.2644   18.3999 H         1 APQ         0.0522
     28 H10        16.9136   17.5636   24.7363 H         1 APQ         0.2497
     29 H11        19.9060   18.0171   20.9572 H         1 APQ         0.0472
     30 H12        19.5233   17.5720   17.2915 H         1 APQ         0.1692
     31 H13        20.6439   17.9986   18.6124 H         1 APQ         0.1692
     32 H14        17.2739   17.0123   17.6812 H         1 APQ         0.0468
     33 H15        13.7457   16.6011   23.5757 H         1 APQ         0.1888
     34 H16        14.7432   17.0001   25.0000 H         1 APQ         0.1888
@<TRIPOS>BOND
     1    1    4 1  
     2    1    2 1  
     3    2    3 1  
     4    4    5 1  
     5    5    6 1  
     6    6   17 ar 
     7    6    7 ar 
     8    7   13 ar 
     9    7    8 1  
    10    8    9 2  
    11    9   18 1  
    12    9   10 am 
    13   10   11 am 
    14   11   13 1  
    15   11   12 2  
    16   13   14 ar 
    17   14   15 ar 
    18   15   17 ar 
    19   15   16 1  
    20    1   19 1  
    21    1   20 1  
    22    2   21 1  
    23    2   22 1  
    24    3   23 1  
    25    3   24 1  
    26    3   25 1  
    27    5   26 1  
    28    5   27 1  
    29   10   28 1  
    30   14   29 1  
    31   16   30 1  
    32   16   31 1  
    33   17   32 1  
    34   18   33 1  
    35   18   34 1  
@<TRIPOS>SUBSTRUCTURE
     1 APQ         1

