### 
### Created by X-TOOL on Mon Sep 10 21:12:49 2018
### 

@<TRIPOS>MOLECULE
1k6c_ligand
   94    98     1     0     0
SMALL
GAST_HUCK


@<TRIPOS>ATOM
      1 N1          3.2570   -5.4410   16.1630 N.4       1 MK1         0.2576
      2 C1          4.6680   -5.2080   15.6870 C.3       1 MK1         0.0316
      3 C2          5.4710   -4.0700   16.3040 C.3       1 MK1         0.1092
      4 C3          6.8220   -4.0520   15.6490 C.2       1 MK1         0.2304
      5 O1          6.9300   -3.5390   14.5320 O.2       1 MK1        -0.3906
      6 N2          7.8690   -4.6000   16.3290 N.am      1 MK1        -0.2769
      7 C4          9.2810   -4.7300   15.9960 C.3       1 MK1         0.0448
      8 C5          9.9750   -5.4710   17.1500 C.3       1 MK1        -0.0396
      9 C6          9.9180   -3.4980   15.8420 C.3       1 MK1        -0.0396
     10 C7          9.5520   -5.5330   14.7940 C.3       1 MK1        -0.0396
     11 N3          4.5920   -2.8780   15.9820 N.4       1 MK1         0.2635
     12 C8          3.1280   -2.9740   16.3070 C.3       1 MK1         0.0117
     13 C9          2.5030   -4.2940   15.8350 C.3       1 MK1         0.0112
     14 C10         5.0790   -1.5860   16.4960 C.3       1 MK1        -0.0026
     15 C11         5.1070   -0.4850   15.4430 C.3       1 MK1         0.0974
     16 O2          5.1220    0.5580   16.3690 O.3       1 MK1        -0.3864
     17 C12         6.3240   -0.2320   14.5380 C.3       1 MK1        -0.0003
     18 C13         6.2700    0.8700   13.4720 C.3       1 MK1         0.0608
     19 C14         7.6060    0.9590   12.6720 C.3       1 MK1         0.0007
     20 C15         7.6000    1.9920   11.5890 C.ar      1 MK1        -0.0405
     21 C16         7.4220    3.3780   11.8960 C.ar      1 MK1        -0.0602
     22 C17         7.4040    4.3340   10.8500 C.ar      1 MK1        -0.0686
     23 C18         7.5650    3.8960    9.4960 C.ar      1 MK1        -0.0687
     24 C19         7.7440    2.5130    9.1910 C.ar      1 MK1        -0.0686
     25 C20         7.7600    1.5670   10.2430 C.ar      1 MK1        -0.0602
     26 C21         5.0920    0.6470   12.4780 C.2       1 MK1         0.1831
     27 O3          4.7680   -0.4980   12.0830 O.2       1 MK1        -0.3964
     28 N4          4.5110    1.7690   12.0600 N.am      1 MK1        -0.2707
     29 C22         3.4330    1.8060   11.0760 C.3       1 MK1         0.1006
     30 C23         3.3590    3.1720   10.3930 C.3       1 MK1         0.0951
     31 O4          3.7700    4.2120   11.2840 O.3       1 MK1        -0.3857
     32 C24         1.9360    3.3040    9.9120 C.3       1 MK1         0.0085
     33 C25         0.9990    2.5900   10.8420 C.ar      1 MK1        -0.0361
     34 C26        -0.3540    2.6130   11.1430 C.ar      1 MK1        -0.0667
     35 C27        -0.8350    1.7260   12.1380 C.ar      1 MK1        -0.0755
     36 C28         0.0480    0.8370   12.8270 C.ar      1 MK1        -0.0754
     37 C29         1.4230    0.7970   12.5400 C.ar      1 MK1        -0.0646
     38 C30         1.9880    1.6230   11.5920 C.ar      1 MK1        -0.0133
     39 C31         2.6450   -6.6790   15.6730 C.3       1 MK1         0.0087
     40 C32         3.2420   -8.0430   16.0480 C.ar      1 MK1         0.0294
     41 C33         3.2830   -8.5380   17.3800 C.ar      1 MK1         0.0176
     42 N5          3.8350   -9.8040   17.7710 N.ar      1 MK1        -0.3042
     43 C34         4.3530  -10.5370   16.6670 C.ar      1 MK1         0.0042
     44 C35         4.3410  -10.1010   15.3220 C.ar      1 MK1        -0.0403
     45 C36         3.7770   -8.8330   15.0110 C.ar      1 MK1        -0.0354
     46 H1          3.2854   -5.5148   17.1679 H         1 MK1         0.2056
     47 H2          4.6172   -5.0183   14.6047 H         1 MK1         0.0899
     48 H3          5.2288   -6.1363   15.8706 H         1 MK1         0.0899
     49 H4          5.5905   -4.1852   17.3914 H         1 MK1         0.1155
     50 H5          7.6224   -4.9827   17.2193 H         1 MK1         0.1859
     51 H6         11.0455   -5.5826   16.9229 H         1 MK1         0.0254
     52 H7          9.5208   -6.4652   17.2732 H         1 MK1         0.0254
     53 H8          9.8555   -4.8955   18.0798 H         1 MK1         0.0254
     54 H9         10.9768   -3.6614   15.5925 H         1 MK1         0.0254
     55 H10         9.8461   -2.9282   16.7802 H         1 MK1         0.0254
     56 H11         9.4333   -2.9333   15.0319 H         1 MK1         0.0254
     57 H12        10.6372   -5.5772   14.6196 H         1 MK1         0.0254
     58 H13         9.0596   -5.0710   13.9256 H         1 MK1         0.0254
     59 H14         9.1620   -6.5514   14.9378 H         1 MK1         0.0254
     60 H15         4.6369   -2.8092   14.9774 H         1 MK1         0.2061
     61 H16         2.6031   -2.1408   15.8169 H         1 MK1         0.0868
     62 H17         3.0034   -2.8954   17.3971 H         1 MK1         0.0868
     63 H18         1.5097   -4.3902   16.2977 H         1 MK1         0.0868
     64 H19         2.3955   -4.2530   14.7410 H         1 MK1         0.0868
     65 H20         6.1001   -1.7265   16.8801 H         1 MK1         0.0840
     66 H21         4.4194   -1.2666   17.3163 H         1 MK1         0.0840
     67 H22         4.2038   -0.5265   14.8165 H         1 MK1         0.0648
     68 H23         4.3885    0.4615   16.9649 H         1 MK1         0.2100
     69 H24         6.5289   -1.1750   14.0100 H         1 MK1         0.0321
     70 H25         7.1684    0.0082   15.2008 H         1 MK1         0.0321
     71 H26         6.1110    1.8291   13.9865 H         1 MK1         0.0561
     72 H27         7.8004   -0.0217   12.2133 H         1 MK1         0.0453
     73 H28         8.4154    1.2013   13.3764 H         1 MK1         0.0453
     74 H29         7.3013    3.6958   12.9253 H         1 MK1         0.0557
     75 H30         7.2697    5.3864   11.0726 H         1 MK1         0.0599
     76 H31         7.5508    4.6238    8.6927 H         1 MK1         0.0559
     77 H32         7.8665    2.1907    8.1633 H         1 MK1         0.0599
     78 H33         7.8948    0.5145   10.0212 H         1 MK1         0.0557
     79 H34         4.8310    2.6362   12.4416 H         1 MK1         0.1880
     80 H35         3.6458    1.0225   10.3338 H         1 MK1         0.0732
     81 H36         4.0327    3.1863    9.5236 H         1 MK1         0.0659
     82 H37         3.6986    5.0509   10.8441 H         1 MK1         0.2103
     83 H38         1.8516    2.8661    8.9065 H         1 MK1         0.0439
     84 H39         1.6646    4.3692    9.8721 H         1 MK1         0.0439
     85 H40        -1.0264    3.2916   10.6307 H         1 MK1         0.0537
     86 H41        -1.8914    1.7213   12.3812 H         1 MK1         0.0541
     87 H42        -0.3529    0.1782   13.5888 H         1 MK1         0.0541
     88 H43         2.0551    0.0993   13.0774 H         1 MK1         0.0538
     89 H44         2.6538   -6.6221   14.5745 H         1 MK1         0.0997
     90 H45         1.6052   -6.6804   16.0318 H         1 MK1         0.0997
     91 H46         2.8655   -7.9115   18.1600 H         1 MK1         0.0767
     92 H47         4.7916  -11.5066   16.8734 H         1 MK1         0.0767
     93 H48         4.7560  -10.7247   14.5386 H         1 MK1         0.0693
     94 H49         3.7589   -8.4780   13.9869 H         1 MK1         0.0680
@<TRIPOS>BOND
     1    1   39 1  
     2    1   13 1  
     3    1    2 1  
     4    2    3 1  
     5    3   11 1  
     6    3    4 1  
     7    4    6 am 
     8    4    5 2  
     9    6    7 1  
    10    7   10 1  
    11    7    9 1  
    12    7    8 1  
    13   11   14 1  
    14   11   12 1  
    15   12   13 1  
    16   14   15 1  
    17   15   17 1  
    18   15   16 1  
    19   17   18 1  
    20   18   26 1  
    21   18   19 1  
    22   19   20 1  
    23   20   25 ar 
    24   20   21 ar 
    25   21   22 ar 
    26   22   23 ar 
    27   23   24 ar 
    28   24   25 ar 
    29   26   28 am 
    30   26   27 2  
    31   28   29 1  
    32   29   38 1  
    33   29   30 1  
    34   30   32 1  
    35   30   31 1  
    36   32   33 1  
    37   33   38 ar 
    38   33   34 ar 
    39   34   35 ar 
    40   35   36 ar 
    41   36   37 ar 
    42   37   38 ar 
    43   39   40 1  
    44   40   45 ar 
    45   40   41 ar 
    46   41   42 ar 
    47   42   43 ar 
    48   43   44 ar 
    49   44   45 ar 
    50    1   46 1  
    51    2   47 1  
    52    2   48 1  
    53    3   49 1  
    54    6   50 1  
    55    8   51 1  
    56    8   52 1  
    57    8   53 1  
    58    9   54 1  
    59    9   55 1  
    60    9   56 1  
    61   10   57 1  
    62   10   58 1  
    63   10   59 1  
    64   11   60 1  
    65   12   61 1  
    66   12   62 1  
    67   13   63 1  
    68   13   64 1  
    69   14   65 1  
    70   14   66 1  
    71   15   67 1  
    72   16   68 1  
    73   17   69 1  
    74   17   70 1  
    75   18   71 1  
    76   19   72 1  
    77   19   73 1  
    78   21   74 1  
    79   22   75 1  
    80   23   76 1  
    81   24   77 1  
    82   25   78 1  
    83   28   79 1  
    84   29   80 1  
    85   30   81 1  
    86   31   82 1  
    87   32   83 1  
    88   32   84 1  
    89   34   85 1  
    90   35   86 1  
    91   36   87 1  
    92   37   88 1  
    93   39   89 1  
    94   39   90 1  
    95   41   91 1  
    96   43   92 1  
    97   44   93 1  
    98   45   94 1  
@<TRIPOS>SUBSTRUCTURE
     1 MK1         1

