### 
### Created by X-TOOL on Mon Sep 10 21:12:49 2018
### 

@<TRIPOS>MOLECULE
1k6p_ligand
   98   103     1     0     0
SMALL
GAST_HUCK


@<TRIPOS>ATOM
      1 N1          2.9870   -5.2210   16.4330 N.4       1 XN3         0.2550
      2 C1          4.4240   -5.1360   15.8830 C.3       1 XN3         0.0313
      3 C2          5.2740   -4.0030   16.4550 C.3       1 XN3         0.1092
      4 C3          6.5890   -4.1070   15.7800 C.2       1 XN3         0.2304
      5 O1          6.6900   -3.7170   14.5870 O.2       1 XN3        -0.3906
      6 N2          7.6250   -4.6130   16.5050 N.am      1 XN3        -0.2769
      7 C4          9.0440   -4.8250   16.1550 C.3       1 XN3         0.0448
      8 C5          9.7760   -5.4670   17.3640 C.3       1 XN3        -0.0396
      9 C6          9.7310   -3.6180   15.9290 C.3       1 XN3        -0.0396
     10 C7          9.2710   -5.7280   14.9800 C.3       1 XN3        -0.0396
     11 N3          4.4080   -2.7320   16.1550 N.4       1 XN3         0.2635
     12 C8          2.9770   -2.7210   16.6230 C.3       1 XN3         0.0117
     13 C9          2.3040   -3.9920   16.0890 C.3       1 XN3         0.0109
     14 C10         5.0340   -1.4780   16.6850 C.3       1 XN3        -0.0026
     15 C11         5.0310   -0.4040   15.6520 C.3       1 XN3         0.0974
     16 O2          5.0260    0.6510   16.5970 O.3       1 XN3        -0.3864
     17 C12         6.2600   -0.1440   14.7950 C.3       1 XN3        -0.0003
     18 C13         6.2470    0.9680   13.7360 C.3       1 XN3         0.0608
     19 C14         7.6760    1.0260   12.9870 C.3       1 XN3         0.0007
     20 C15         7.7080    2.1340   11.9120 C.ar      1 XN3        -0.0405
     21 C16         7.5640    3.5760   12.2690 C.ar      1 XN3        -0.0602
     22 C17         7.5860    4.5810   11.2230 C.ar      1 XN3        -0.0686
     23 C18         7.7530    4.1510    9.8110 C.ar      1 XN3        -0.0687
     24 C19         7.8950    2.7180    9.4740 C.ar      1 XN3        -0.0686
     25 C20         7.8720    1.7290   10.5180 C.ar      1 XN3        -0.0602
     26 C21         5.1360    0.7420   12.6270 C.2       1 XN3         0.1831
     27 O3          4.7740   -0.4090   12.1580 O.2       1 XN3        -0.3964
     28 N4          4.6460    1.8950   12.2310 N.am      1 XN3        -0.2707
     29 C22         3.6330    2.0750   11.2110 C.3       1 XN3         0.1006
     30 C23         3.5990    3.4990   10.6770 C.3       1 XN3         0.0951
     31 O4          3.7360    4.4530   11.7260 O.3       1 XN3        -0.3857
     32 C24         2.3020    3.5780    9.9210 C.3       1 XN3         0.0085
     33 C25         1.2550    2.8450   10.7180 C.ar      1 XN3        -0.0361
     34 C26        -0.1400    2.8390   10.8590 C.ar      1 XN3        -0.0667
     35 C27        -0.7240    1.9050   11.8050 C.ar      1 XN3        -0.0755
     36 C28         0.1090    0.9840   12.5990 C.ar      1 XN3        -0.0754
     37 C29         1.5180    0.9800   12.4650 C.ar      1 XN3        -0.0646
     38 C30         2.1670    1.8480   11.5760 C.ar      1 XN3        -0.0133
     39 C31         2.2370   -6.3570   15.8620 C.3       1 XN3        -0.0048
     40 C32         2.7850   -7.7490   16.1700 C.ar      1 XN3        -0.0182
     41 C33         2.6270   -8.3460   17.4970 C.ar      1 XN3        -0.0751
     42 C34         3.8240  -10.3630   16.7610 C.ar      1 XN3         0.1160
     43 C35         4.0190   -9.8410   15.4420 C.ar      1 XN3         0.1171
     44 C36         3.4850   -8.5080   15.1320 C.ar      1 XN3        -0.0347
     45 O5          4.4180  -11.6360   16.8100 O.3       1 XN3        -0.2956
     46 C38         5.0500  -12.0910   15.5490 C.3       1 XN3         0.1854
     47 O6          4.7110  -10.8440   14.7730 O.3       1 XN3        -0.2927
     48 C37         3.1340   -9.6740   17.8730 C.ar      1 XN3        -0.0476
     49 H1          3.0228   -5.3229   17.4352 H         1 XN3         0.2052
     50 H2          4.3636   -4.9991   14.7932 H         1 XN3         0.0898
     51 H3          4.9303   -6.0868   16.1057 H         1 XN3         0.0898
     52 H4          5.4188   -4.1030   17.5408 H         1 XN3         0.1155
     53 H5          7.3829   -4.8887   17.4353 H         1 XN3         0.1859
     54 H6         10.8340   -5.6274   17.1090 H         1 XN3         0.0254
     55 H7          9.3070   -6.4320   17.6064 H         1 XN3         0.0254
     56 H8          9.7059   -4.7966   18.2333 H         1 XN3         0.0254
     57 H9         10.7786   -3.8348   15.6732 H         1 XN3         0.0254
     58 H10         9.6959   -3.0003   16.8385 H         1 XN3         0.0254
     59 H11         9.2556   -3.0754   15.0986 H         1 XN3         0.0254
     60 H12        10.3511   -5.8255   14.7958 H         1 XN3         0.0254
     61 H13         8.7844   -5.3016   14.0904 H         1 XN3         0.0254
     62 H14         8.8442   -6.7195   15.1916 H         1 XN3         0.0254
     63 H15         4.3807   -2.6590   15.1500 H         1 XN3         0.2061
     64 H16         2.4615   -1.8313   16.2323 H         1 XN3         0.0868
     65 H17         2.9420   -2.7118   17.7224 H         1 XN3         0.0868
     66 H18         1.2842   -4.0391   16.4986 H         1 XN3         0.0868
     67 H19         2.2558   -3.9207   14.9924 H         1 XN3         0.0868
     68 H20         6.0721   -1.6907   16.9802 H         1 XN3         0.0840
     69 H21         4.4662   -1.1351   17.5625 H         1 XN3         0.0840
     70 H22         4.1388   -0.4628   15.0113 H         1 XN3         0.0648
     71 H23         4.2774    0.5543   17.1740 H         1 XN3         0.2100
     72 H24         6.4795   -1.0824   14.2647 H         1 XN3         0.0321
     73 H25         7.0837    0.0879   15.4862 H         1 XN3         0.0321
     74 H26         6.0577    1.9271   14.2401 H         1 XN3         0.0561
     75 H27         7.8667    0.0555   12.5055 H         1 XN3         0.0453
     76 H28         8.4612    1.2270   13.7306 H         1 XN3         0.0453
     77 H29         7.4435    3.8710   13.3051 H         1 XN3         0.0557
     78 H30         7.4820    5.6317   11.4685 H         1 XN3         0.0599
     79 H31         7.7709    4.8934    9.0213 H         1 XN3         0.0559
     80 H32         8.0163    2.4133    8.4408 H         1 XN3         0.0599
     81 H33         7.9768    0.6791   10.2695 H         1 XN3         0.0557
     82 H34         5.0028    2.7189   12.6714 H         1 XN3         0.1880
     83 H35         3.8936    1.3832   10.3964 H         1 XN3         0.0732
     84 H36         4.4328    3.6524    9.9761 H         1 XN3         0.0659
     85 H37         3.6814    5.3297   11.3643 H         1 XN3         0.2103
     86 H38         2.4162    3.1081    8.9330 H         1 XN3         0.0439
     87 H39         2.0067    4.6301    9.7947 H         1 XN3         0.0439
     88 H40        -0.7631    3.5108   10.2798 H         1 XN3         0.0537
     89 H41        -1.8005    1.8845   11.9306 H         1 XN3         0.0541
     90 H42        -0.3639    0.3005   13.2949 H         1 XN3         0.0541
     91 H43         2.1067    0.2924   13.0614 H         1 XN3         0.0538
     92 H44         2.2244   -6.2355   14.7688 H         1 XN3         0.0957
     93 H45         1.2082   -6.3082   16.2482 H         1 XN3         0.0957
     94 H46         2.1020   -7.7717   18.2517 H         1 XN3         0.0438
     95 H47         3.6086   -8.0886   14.1401 H         1 XN3         0.0452
     96 H48         6.1334  -12.2539   15.6469 H         1 XN3         0.0970
     97 H49         4.5791  -12.9949   15.1352 H         1 XN3         0.0970
     98 H50         3.0146  -10.1030   18.8613 H         1 XN3         0.0493
@<TRIPOS>BOND
     1    1   39 1  
     2    1   13 1  
     3    1    2 1  
     4    2    3 1  
     5    3   11 1  
     6    3    4 1  
     7    4    6 am 
     8    4    5 2  
     9    6    7 1  
    10    7   10 1  
    11    7    9 1  
    12    7    8 1  
    13   11   14 1  
    14   11   12 1  
    15   12   13 1  
    16   14   15 1  
    17   15   17 1  
    18   15   16 1  
    19   17   18 1  
    20   18   26 1  
    21   18   19 1  
    22   19   20 1  
    23   20   25 ar 
    24   20   21 ar 
    25   21   22 ar 
    26   22   23 ar 
    27   23   24 ar 
    28   24   25 ar 
    29   26   28 am 
    30   26   27 2  
    31   28   29 1  
    32   29   38 1  
    33   29   30 1  
    34   30   32 1  
    35   30   31 1  
    36   32   33 1  
    37   33   38 ar 
    38   33   34 ar 
    39   34   35 ar 
    40   35   36 ar 
    41   36   37 ar 
    42   37   38 ar 
    43   39   40 1  
    44   40   44 ar 
    45   40   41 ar 
    46   41   48 ar 
    47   48   42 ar 
    48   42   45 1  
    49   42   43 ar 
    50   43   47 1  
    51   43   44 ar 
    52   47   46 1  
    53   46   45 1  
    54    1   49 1  
    55    2   50 1  
    56    2   51 1  
    57    3   52 1  
    58    6   53 1  
    59    8   54 1  
    60    8   55 1  
    61    8   56 1  
    62    9   57 1  
    63    9   58 1  
    64    9   59 1  
    65   10   60 1  
    66   10   61 1  
    67   10   62 1  
    68   11   63 1  
    69   12   64 1  
    70   12   65 1  
    71   13   66 1  
    72   13   67 1  
    73   14   68 1  
    74   14   69 1  
    75   15   70 1  
    76   16   71 1  
    77   17   72 1  
    78   17   73 1  
    79   18   74 1  
    80   19   75 1  
    81   19   76 1  
    82   21   77 1  
    83   22   78 1  
    84   23   79 1  
    85   24   80 1  
    86   25   81 1  
    87   28   82 1  
    88   29   83 1  
    89   30   84 1  
    90   31   85 1  
    91   32   86 1  
    92   32   87 1  
    93   34   88 1  
    94   35   89 1  
    95   36   90 1  
    96   37   91 1  
    97   39   92 1  
    98   39   93 1  
    99   41   94 1  
   100   44   95 1  
   101   46   96 1  
   102   46   97 1  
   103   48   98 1  
@<TRIPOS>SUBSTRUCTURE
     1 XN3         1

