### 
### Created by X-TOOL on Mon Sep 10 21:12:49 2018
### 

@<TRIPOS>MOLECULE
1k6t_ligand
   97   101     1     0     0
SMALL
GAST_HUCK


@<TRIPOS>ATOM
      1 N1          3.1820   -5.3320   16.3030 N.4       1 XN1         0.2576
      2 C1          4.6020   -5.1460   15.8000 C.3       1 XN1         0.0316
      3 C2          5.4030   -3.9970   16.4070 C.3       1 XN1         0.1092
      4 C3          6.7370   -4.0250   15.7400 C.2       1 XN1         0.2304
      5 O1          6.8500   -3.5830   14.5800 O.2       1 XN1        -0.3906
      6 N2          7.7600   -4.5330   16.4390 N.am      1 XN1        -0.2769
      7 C4          9.1730   -4.7000   16.0900 C.3       1 XN1         0.0448
      8 C5          9.9070   -5.3650   17.2820 C.3       1 XN1        -0.0396
      9 C6          9.8290   -3.4800   15.8720 C.3       1 XN1        -0.0396
     10 C7          9.4110   -5.5860   14.9160 C.3       1 XN1        -0.0396
     11 N3          4.4900   -2.7760   16.1220 N.4       1 XN1         0.2635
     12 C8          3.0610   -2.8590   16.5660 C.3       1 XN1         0.0117
     13 C9          2.4390   -4.1420   16.0320 C.3       1 XN1         0.0112
     14 C10         5.0120   -1.4890   16.6570 C.3       1 XN1        -0.0026
     15 C11         4.9970   -0.4370   15.6040 C.3       1 XN1         0.0974
     16 O2          5.1220    0.6140   16.5270 O.3       1 XN1        -0.3864
     17 C12         6.1660   -0.2630   14.6360 C.3       1 XN1        -0.0000
     18 C13         6.1370    0.8190   13.5370 C.3       1 XN1         0.0634
     19 C14         7.4940    0.7770   12.6920 C.3       1 XN1         0.0095
     20 C15         7.4930    1.8430   11.5870 C.ar      1 XN1        -0.0377
     21 C16         7.3260    3.2730   11.8930 C.ar      1 XN1        -0.0599
     22 C17         7.3180    4.2330   10.8230 C.ar      1 XN1        -0.0685
     23 C18         7.4810    3.7660    9.4410 C.ar      1 XN1        -0.0687
     24 C19         7.6480    2.3510    9.1530 C.ar      1 XN1        -0.0685
     25 C20         7.6530    1.4040   10.2200 C.ar      1 XN1        -0.0599
     26 C21         4.9510    0.6120   12.5330 C.2       1 XN1         0.1834
     27 O3          4.4830   -0.5370   12.1980 O.2       1 XN1        -0.3964
     28 N4          4.5160    1.7590   12.0580 N.am      1 XN1        -0.2707
     29 C22         3.4530    1.8920   11.0810 C.3       1 XN1         0.1006
     30 C23         3.4150    3.2820   10.4760 C.3       1 XN1         0.0951
     31 O4          3.7030    4.2740   11.4470 O.3       1 XN1        -0.3857
     32 C24         2.0500    3.3980    9.8540 C.3       1 XN1         0.0085
     33 C25         1.0530    2.6850   10.7290 C.ar      1 XN1        -0.0361
     34 C26        -0.3210    2.7010   10.9570 C.ar      1 XN1        -0.0667
     35 C27        -0.8560    1.7970   11.9360 C.ar      1 XN1        -0.0755
     36 C28         0.0030    0.8880   12.6750 C.ar      1 XN1        -0.0754
     37 C29         1.3940    0.8600   12.4570 C.ar      1 XN1        -0.0646
     38 C30         1.9990    1.6960   11.5320 C.ar      1 XN1        -0.0133
     39 C31         2.4960   -6.4920   15.7040 C.3       1 XN1         0.0087
     40 C32         3.1180   -7.8800   15.8760 C.ar      1 XN1         0.0294
     41 C33         3.2680   -8.5080   17.1620 C.ar      1 XN1         0.0176
     42 N5          3.8580   -9.8240   17.3710 N.ar      1 XN1        -0.3042
     43 C34         4.2940  -10.4710   16.1490 C.ar      1 XN1         0.0042
     44 C35         4.1720   -9.8990   14.8360 C.ar      1 XN1        -0.0403
     45 C36         3.5750   -8.5820   14.7060 C.ar      1 XN1        -0.0354
     46 C37         8.8850    0.7840   13.3100 C.3       1 XN1        -0.0502
     47 H1          3.2187   -5.4736   17.3003 H         1 XN1         0.2056
     48 H2          4.5510   -4.9786   14.7140 H         1 XN1         0.0899
     49 H3          5.1512   -6.0774   16.0020 H         1 XN1         0.0899
     50 H4          5.5410   -4.1143   17.4920 H         1 XN1         0.1155
     51 H5          7.5183   -4.8528   17.3551 H         1 XN1         0.1859
     52 H6         10.9700   -5.4956   17.0312 H         1 XN1         0.0254
     53 H7          9.4558   -6.3466   17.4889 H         1 XN1         0.0254
     54 H8          9.8162   -4.7248   18.1719 H         1 XN1         0.0254
     55 H9         10.8814   -3.6704   15.6149 H         1 XN1         0.0254
     56 H10         9.7795   -2.8687   16.7852 H         1 XN1         0.0254
     57 H11         9.3408   -2.9438   15.0449 H         1 XN1         0.0254
     58 H12        10.4917   -5.6567   14.7232 H         1 XN1         0.0254
     59 H13         8.9076   -5.1670   14.0323 H         1 XN1         0.0254
     60 H14         9.0096   -6.5884   15.1258 H         1 XN1         0.0254
     61 H15         4.4721   -2.6947   15.1175 H         1 XN1         0.2061
     62 H16         2.5052   -1.9927   16.1780 H         1 XN1         0.0868
     63 H17         3.0177   -2.8601   17.6651 H         1 XN1         0.0868
     64 H18         1.4422   -4.2517   16.4841 H         1 XN1         0.0868
     65 H19         2.3381   -4.0438   14.9411 H         1 XN1         0.0868
     66 H20         6.0447   -1.6355   17.0064 H         1 XN1         0.0840
     67 H21         4.3823   -1.1660   17.4991 H         1 XN1         0.0840
     68 H22         4.0543   -0.4498   15.0373 H         1 XN1         0.0648
     69 H23         4.4176    0.5615   17.1623 H         1 XN1         0.2100
     70 H24         6.2914   -1.2271   14.1215 H         1 XN1         0.0321
     71 H25         7.0538   -0.0581   15.2523 H         1 XN1         0.0321
     72 H26         6.0336    1.8032   14.0172 H         1 XN1         0.0564
     73 H27         7.4383   -0.1969   12.1836 H         1 XN1         0.0486
     74 H28         7.2097    3.6005   12.9198 H         1 XN1         0.0557
     75 H29         7.1931    5.2889   11.0342 H         1 XN1         0.0599
     76 H30         7.4768    4.4828    8.6278 H         1 XN1         0.0559
     77 H31         7.7685    2.0159    8.1292 H         1 XN1         0.0599
     78 H32         7.7776    0.3491   10.0038 H         1 XN1         0.0557
     79 H33         4.9479    2.5962   12.3936 H         1 XN1         0.1880
     80 H34         3.6666    1.1545   10.2933 H         1 XN1         0.0732
     81 H35         4.1747    3.3594    9.6843 H         1 XN1         0.0659
     82 H36         3.6536    5.1332   11.0446 H         1 XN1         0.2103
     83 H37         2.0593    2.9384    8.8547 H         1 XN1         0.0439
     84 H38         1.7727    4.4589    9.7671 H         1 XN1         0.0439
     85 H39        -0.9685    3.3772   10.4105 H         1 XN1         0.0537
     86 H40        -1.9229    1.7928   12.1276 H         1 XN1         0.0541
     87 H41        -0.4346    0.2193   13.4074 H         1 XN1         0.0541
     88 H42         2.0054    0.1688   13.0257 H         1 XN1         0.0538
     89 H43         2.4212   -6.3019   14.6231 H         1 XN1         0.0997
     90 H44         1.4869   -6.5326   16.1399 H         1 XN1         0.0997
     91 H45         2.9188   -7.9660   18.0334 H         1 XN1         0.0767
     92 H46         4.7431  -11.4542   16.2312 H         1 XN1         0.0767
     93 H47         4.5181  -10.4390   13.9621 H         1 XN1         0.0693
     94 H48         3.4735   -8.1273   13.7272 H         1 XN1         0.0680
     95 H49         9.6410    0.7496   12.5117 H         1 XN1         0.0256
     96 H50         9.0007   -0.0938   13.9627 H         1 XN1         0.0256
     97 H51         9.0186    1.7013   13.9021 H         1 XN1         0.0256
@<TRIPOS>BOND
     1    1   39 1  
     2    1   13 1  
     3    1    2 1  
     4    2    3 1  
     5    3   11 1  
     6    3    4 1  
     7    4    6 am 
     8    4    5 2  
     9    6    7 1  
    10    7   10 1  
    11    7    9 1  
    12    7    8 1  
    13   11   14 1  
    14   11   12 1  
    15   12   13 1  
    16   14   15 1  
    17   15   17 1  
    18   15   16 1  
    19   17   18 1  
    20   18   26 1  
    21   18   19 1  
    22   19   46 1  
    23   19   20 1  
    24   20   25 ar 
    25   20   21 ar 
    26   21   22 ar 
    27   22   23 ar 
    28   23   24 ar 
    29   24   25 ar 
    30   26   28 am 
    31   26   27 2  
    32   28   29 1  
    33   29   38 1  
    34   29   30 1  
    35   30   32 1  
    36   30   31 1  
    37   32   33 1  
    38   33   38 ar 
    39   33   34 ar 
    40   34   35 ar 
    41   35   36 ar 
    42   36   37 ar 
    43   37   38 ar 
    44   39   40 1  
    45   40   45 ar 
    46   40   41 ar 
    47   41   42 ar 
    48   42   43 ar 
    49   43   44 ar 
    50   44   45 ar 
    51    1   47 1  
    52    2   48 1  
    53    2   49 1  
    54    3   50 1  
    55    6   51 1  
    56    8   52 1  
    57    8   53 1  
    58    8   54 1  
    59    9   55 1  
    60    9   56 1  
    61    9   57 1  
    62   10   58 1  
    63   10   59 1  
    64   10   60 1  
    65   11   61 1  
    66   12   62 1  
    67   12   63 1  
    68   13   64 1  
    69   13   65 1  
    70   14   66 1  
    71   14   67 1  
    72   15   68 1  
    73   16   69 1  
    74   17   70 1  
    75   17   71 1  
    76   18   72 1  
    77   19   73 1  
    78   21   74 1  
    79   22   75 1  
    80   23   76 1  
    81   24   77 1  
    82   25   78 1  
    83   28   79 1  
    84   29   80 1  
    85   30   81 1  
    86   31   82 1  
    87   32   83 1  
    88   32   84 1  
    89   34   85 1  
    90   35   86 1  
    91   36   87 1  
    92   37   88 1  
    93   39   89 1  
    94   39   90 1  
    95   41   91 1  
    96   43   92 1  
    97   44   93 1  
    98   45   94 1  
    99   46   95 1  
   100   46   96 1  
   101   46   97 1  
@<TRIPOS>SUBSTRUCTURE
     1 XN1         1

