### 
### Created by X-TOOL on Mon Sep 10 21:12:49 2018
### 

@<TRIPOS>MOLECULE
1k6v_ligand
  101   106     1     0     0
SMALL
GAST_HUCK


@<TRIPOS>ATOM
      1 N1          3.1180   -5.2840   16.2850 N.4       1 XN2         0.2550
      2 C1          4.5860   -5.1680   15.7160 C.3       1 XN2         0.0313
      3 C2          5.3840   -4.0130   16.3090 C.3       1 XN2         0.1092
      4 C3          6.7110   -4.0500   15.6500 C.2       1 XN2         0.2304
      5 O1          6.7840   -3.6980   14.4150 O.2       1 XN2        -0.3906
      6 N2          7.7990   -4.4460   16.4110 N.am      1 XN2        -0.2769
      7 C4          9.2450   -4.5680   16.0530 C.3       1 XN2         0.0448
      8 C5         10.0490   -5.0680   17.2840 C.3       1 XN2        -0.0396
      9 C6          9.8370   -3.3260   15.7490 C.3       1 XN2        -0.0396
     10 C7          9.5300   -5.5060   14.9120 C.3       1 XN2        -0.0396
     11 N3          4.4720   -2.7710   16.0070 N.4       1 XN2         0.2635
     12 C8          3.0220   -2.7640   16.4400 C.3       1 XN2         0.0117
     13 C9          2.4060   -4.0570   15.8710 C.3       1 XN2         0.0109
     14 C10         5.0920   -1.5070   16.5610 C.3       1 XN2        -0.0026
     15 C11         5.0370   -0.4330   15.5530 C.3       1 XN2         0.0974
     16 O2          5.1910    0.5900   16.5100 O.3       1 XN2        -0.3864
     17 C12         6.1970   -0.2170   14.6540 C.3       1 XN2        -0.0000
     18 C13         6.1500    0.8690   13.5930 C.3       1 XN2         0.0634
     19 C14         7.5870    0.8640   12.7980 C.3       1 XN2         0.0095
     20 C15         7.5480    1.9760   11.6720 C.ar      1 XN2        -0.0377
     21 C16         7.3350    3.4760   11.9910 C.ar      1 XN2        -0.0599
     22 C17         7.2970    4.4600   10.8930 C.ar      1 XN2        -0.0685
     23 C18         7.4670    3.9730    9.4580 C.ar      1 XN2        -0.0687
     24 C19         7.6730    2.5090    9.1600 C.ar      1 XN2        -0.0685
     25 C20         7.7110    1.5320   10.2530 C.ar      1 XN2        -0.0599
     26 C21         4.9970    0.6110   12.5050 C.2       1 XN2         0.1834
     27 O3          4.6510   -0.5420   12.0120 O.2       1 XN2        -0.3964
     28 N4          4.4610    1.7520   12.1510 N.am      1 XN2        -0.2707
     29 C22         3.4190    1.8900   11.1550 C.3       1 XN2         0.1006
     30 C23         3.4300    3.2720   10.5340 C.3       1 XN2         0.0951
     31 O4          3.7100    4.2880   11.4950 O.3       1 XN2        -0.3857
     32 C24         2.1000    3.3840    9.8350 C.3       1 XN2         0.0085
     33 C25         1.0540    2.7220   10.6700 C.ar      1 XN2        -0.0361
     34 C26        -0.3600    2.7710   10.8350 C.ar      1 XN2        -0.0667
     35 C27        -0.9730    1.8760   11.8430 C.ar      1 XN2        -0.0755
     36 C28        -0.1500    0.9330   12.6790 C.ar      1 XN2        -0.0754
     37 C29         1.2870    0.8820   12.5130 C.ar      1 XN2        -0.0646
     38 C30         1.9540    1.7150   11.5640 C.ar      1 XN2        -0.0133
     39 C31         2.4080   -6.4070   15.6970 C.3       1 XN2        -0.0048
     40 C32         2.9580   -7.7770   16.0440 C.ar      1 XN2        -0.0182
     41 C33         2.7520   -8.2970   17.4260 C.ar      1 XN2        -0.0751
     42 C34         3.9750  -10.4000   16.8410 C.ar      1 XN2         0.1160
     43 C35         4.2190   -9.9650   15.4650 C.ar      1 XN2         0.1171
     44 C36         3.7020   -8.6230   15.0450 C.ar      1 XN2        -0.0347
     45 O5          4.5420  -11.6570   16.9900 O.3       1 XN2        -0.2956
     46 C38         5.2090  -12.2010   15.7870 C.3       1 XN2         0.1854
     47 O6          4.9220  -11.0170   14.9000 O.3       1 XN2        -0.2927
     48 C37         3.2400   -9.6210   17.9060 C.ar      1 XN2        -0.0476
     49 C39         8.8100    0.8990   13.2310 C.3       1 XN2        -0.0502
     50 H1          3.1384   -5.3721   17.2889 H         1 XN2         0.2052
     51 H2          4.5260   -5.0254   14.6269 H         1 XN2         0.0898
     52 H3          5.1181   -6.1057   15.9343 H         1 XN2         0.0898
     53 H4          5.5187   -4.1194   17.3955 H         1 XN2         0.1155
     54 H5          7.5808   -4.6906   17.3558 H         1 XN2         0.1859
     55 H6         11.1122   -5.1563   17.0162 H         1 XN2         0.0254
     56 H7          9.6669   -6.0509   17.5970 H         1 XN2         0.0254
     57 H8          9.9375   -4.3510   18.1107 H         1 XN2         0.0254
     58 H9         10.8963   -3.4773   15.4943 H         1 XN2         0.0254
     59 H10         9.7612   -2.6603   16.6214 H         1 XN2         0.0254
     60 H11         9.3157   -2.8708   14.8940 H         1 XN2         0.0254
     61 H12        10.6129   -5.5320   14.7205 H         1 XN2         0.0254
     62 H13         9.0065   -5.1561   14.0101 H         1 XN2         0.0254
     63 H14         9.1792   -6.5158   15.1711 H         1 XN2         0.0254
     64 H15         4.4593   -2.6934   15.0021 H         1 XN2         0.2061
     65 H16         2.5052   -1.8825   16.0329 H         1 XN2         0.0868
     66 H17         2.9503   -2.7567   17.5376 H         1 XN2         0.0868
     67 H18         1.3638   -4.1266   16.2159 H         1 XN2         0.0868
     68 H19         2.4256   -3.9974   14.7728 H         1 XN2         0.0868
     69 H20         6.1411   -1.7027   16.8274 H         1 XN2         0.0840
     70 H21         4.5383   -1.1929   17.4581 H         1 XN2         0.0840
     71 H22         4.0949   -0.4340   14.9851 H         1 XN2         0.0648
     72 H23         4.4850    0.5383   17.1435 H         1 XN2         0.2100
     73 H24         6.3703   -1.1669   14.1271 H         1 XN2         0.0321
     74 H25         7.0596    0.0075   15.2986 H         1 XN2         0.0321
     75 H26         5.9849    1.8431   14.0767 H         1 XN2         0.0564
     76 H27         7.5490   -0.1095   12.2873 H         1 XN2         0.0486
     77 H28         7.2142    3.8019   13.0178 H         1 XN2         0.0557
     78 H29         7.1505    5.5133   11.1029 H         1 XN2         0.0599
     79 H30         7.4395    4.6871    8.6429 H         1 XN2         0.0559
     80 H31         7.7933    2.1779    8.1348 H         1 XN2         0.0599
     81 H32         7.8582    0.4812   10.0311 H         1 XN2         0.0557
     82 H33         4.7931    2.5827   12.5978 H         1 XN2         0.1880
     83 H34         3.6394    1.1411   10.3800 H         1 XN2         0.0732
     84 H35         4.2254    3.3200    9.7757 H         1 XN2         0.0659
     85 H36         3.7031    5.1366   11.0681 H         1 XN2         0.2103
     86 H37         2.1562    2.8894    8.8541 H         1 XN2         0.0439
     87 H38         1.8444    4.4449    9.6967 H         1 XN2         0.0439
     88 H39        -0.9687    3.4429   10.2408 H         1 XN2         0.0537
     89 H40        -2.0476    1.9007   11.9831 H         1 XN2         0.0541
     90 H41        -0.6340    0.2913   13.4063 H         1 XN2         0.0541
     91 H42         1.8682    0.1981   13.1209 H         1 XN2         0.0538
     92 H43         2.4415   -6.2948   14.6033 H         1 XN2         0.0957
     93 H44         1.3631   -6.3643   16.0382 H         1 XN2         0.0957
     94 H45         2.2121   -7.6713   18.1275 H         1 XN2         0.0438
     95 H46         3.8616   -8.2654   14.0342 H         1 XN2         0.0452
     96 H47         6.2857  -12.3686   15.9371 H         1 XN2         0.0970
     97 H48         4.7407  -13.1277   15.4238 H         1 XN2         0.0970
     98 H49         3.0837   -9.9867   18.9144 H         1 XN2         0.0493
     99 H50         9.5022    0.8799   12.3763 H         1 XN2         0.0256
    100 H51         8.9966    0.0259   13.8735 H         1 XN2         0.0256
    101 H52         8.9678    1.8209   13.8100 H         1 XN2         0.0256
@<TRIPOS>BOND
     1    1   39 1  
     2    1   13 1  
     3    1    2 1  
     4    2    3 1  
     5    3   11 1  
     6    3    4 1  
     7    4    6 am 
     8    4    5 2  
     9    6    7 1  
    10    7   10 1  
    11    7    9 1  
    12    7    8 1  
    13   11   14 1  
    14   11   12 1  
    15   12   13 1  
    16   14   15 1  
    17   15   17 1  
    18   15   16 1  
    19   17   18 1  
    20   18   26 1  
    21   18   19 1  
    22   19   49 1  
    23   19   20 1  
    24   20   25 ar 
    25   20   21 ar 
    26   21   22 ar 
    27   22   23 ar 
    28   23   24 ar 
    29   24   25 ar 
    30   26   28 am 
    31   26   27 2  
    32   28   29 1  
    33   29   38 1  
    34   29   30 1  
    35   30   32 1  
    36   30   31 1  
    37   32   33 1  
    38   33   38 ar 
    39   33   34 ar 
    40   34   35 ar 
    41   35   36 ar 
    42   36   37 ar 
    43   37   38 ar 
    44   39   40 1  
    45   40   44 ar 
    46   40   41 ar 
    47   41   48 ar 
    48   48   42 ar 
    49   42   45 1  
    50   42   43 ar 
    51   43   47 1  
    52   43   44 ar 
    53   47   46 1  
    54   46   45 1  
    55    1   50 1  
    56    2   51 1  
    57    2   52 1  
    58    3   53 1  
    59    6   54 1  
    60    8   55 1  
    61    8   56 1  
    62    8   57 1  
    63    9   58 1  
    64    9   59 1  
    65    9   60 1  
    66   10   61 1  
    67   10   62 1  
    68   10   63 1  
    69   11   64 1  
    70   12   65 1  
    71   12   66 1  
    72   13   67 1  
    73   13   68 1  
    74   14   69 1  
    75   14   70 1  
    76   15   71 1  
    77   16   72 1  
    78   17   73 1  
    79   17   74 1  
    80   18   75 1  
    81   19   76 1  
    82   21   77 1  
    83   22   78 1  
    84   23   79 1  
    85   24   80 1  
    86   25   81 1  
    87   28   82 1  
    88   29   83 1  
    89   30   84 1  
    90   31   85 1  
    91   32   86 1  
    92   32   87 1  
    93   34   88 1  
    94   35   89 1  
    95   36   90 1  
    96   37   91 1  
    97   39   92 1  
    98   39   93 1  
    99   41   94 1  
   100   44   95 1  
   101   46   96 1  
   102   46   97 1  
   103   48   98 1  
   104   49   99 1  
   105   49  100 1  
   106   49  101 1  
@<TRIPOS>SUBSTRUCTURE
     1 XN2         1

