### 
### Created by X-TOOL on Mon Sep 10 21:12:48 2018
### 

@<TRIPOS>MOLECULE
1k9q_ligand
   99   102     1     0     0
SMALL
GAST_HUCK


@<TRIPOS>ATOM
      1 H1          6.6217    8.6878    6.7144 H         1 GLY         0.2032
      2 N           6.1050    9.1340    7.4560 N.4       1 GLY         0.2440
      3 CA          5.2020   10.1580    6.8600 C.3       1 GLY         0.0564
      4 C           4.2400    9.4820    5.8750 C.2       1 GLY         0.2262
      5 O           4.6070    9.1990    4.7520 O.2       1 GLY        -0.3908
      6 H2          5.5435    8.4473    7.9348 H         1 GLY         0.2032
      7 H3          5.8022   10.9107    6.3278 H         1 GLY         0.1062
      8 H4          4.6249   10.6470    7.6586 H         1 GLY         0.1062
      9 N           3.0300    9.2420    6.3240 N.am      1 PRO        -0.2474
     10 CA          2.0180    8.5900    5.4570 C.3       1 PRO         0.1341
     11 C           1.5140    9.5760    4.3920 C.2       1 PRO         0.2066
     12 O           1.3360   10.7440    4.6720 O.2       1 PRO        -0.3942
     13 CB          0.9000    8.2180    6.4250 C.3       1 PRO        -0.0104
     14 CG          1.0380    9.1760    7.5670 C.3       1 PRO        -0.0281
     15 CD          2.4960    9.5470    7.6600 C.3       1 PRO         0.0371
     16 H5          2.4312    7.6952    4.9685 H         1 PRO         0.0802
     17 H6          1.0200    7.1817    6.7737 H         1 PRO         0.0313
     18 H7         -0.0821    8.3312    5.9426 H         1 PRO         0.0313
     19 H8          0.4311   10.0744    7.3813 H         1 PRO         0.0287
     20 H9          0.7097    8.6984    8.5019 H         1 PRO         0.0287
     21 H10         2.6128   10.6158    7.8925 H         1 PRO         0.0524
     22 H11         3.0032    8.9467    8.4296 H         1 PRO         0.0524
     23 N           1.2970    9.0730    3.1990 N.am      1 PRO        -0.2498
     24 CA          0.8080    9.9360    2.0960 C.3       1 PRO         0.1340
     25 C          -0.6720   10.2860    2.3060 C.2       1 PRO         0.2066
     26 O          -1.3500    9.6480    3.0850 O.2       1 PRO        -0.3942
     27 CB          0.9890    9.0700    0.8530 C.3       1 PRO        -0.0104
     28 CG          0.9590    7.6610    1.3540 C.3       1 PRO        -0.0281
     29 CD          1.4830    7.6790    2.7670 C.3       1 PRO         0.0369
     30 H12         1.4007   10.8598    2.0232 H         1 PRO         0.0802
     31 H13         1.9519    9.2871    0.3676 H         1 PRO         0.0313
     32 H14         0.1708    9.2436    0.1386 H         1 PRO         0.0313
     33 H15        -0.0719    7.2777    1.3392 H         1 PRO         0.0287
     34 H16         1.5964    7.0234    0.7238 H         1 PRO         0.0287
     35 H17         0.9084    6.9920    3.4056 H         1 PRO         0.0524
     36 H18         2.5468    7.4005    2.7928 H         1 PRO         0.0524
     37 N          -1.1280   11.2940    1.6010 N.am      1 PRO        -0.2498
     38 CA         -2.5450   11.7220    1.7220 C.3       1 PRO         0.1338
     39 C          -3.4700   10.7110    1.0370 C.2       1 PRO         0.2042
     40 O          -3.0490    9.6440    0.6350 O.2       1 PRO        -0.3944
     41 CB         -2.5790   13.0640    0.9980 C.3       1 PRO        -0.0104
     42 CG         -1.4370   13.0140    0.0330 C.3       1 PRO        -0.0281
     43 CD         -0.3840   12.1220    0.6380 C.3       1 PRO         0.0369
     44 H19        -2.8358   11.8350    2.7768 H         1 PRO         0.0802
     45 H20        -2.4464   13.8911    1.7109 H         1 PRO         0.0313
     46 H21        -3.5317   13.1903    0.4629 H         1 PRO         0.0313
     47 H22        -1.7740   12.6009   -0.9292 H         1 PRO         0.0287
     48 H23        -1.0311   14.0243   -0.1237 H         1 PRO         0.0287
     49 H24         0.0879   11.4957   -0.1334 H         1 PRO         0.0524
     50 H25         0.3868   12.7180    1.1485 H         1 PRO         0.0524
     51 N          -4.7260   11.0380    0.9010 N.am      1 TYR        -0.2621
     52 CA         -5.6750   10.0960    0.2400 C.3       1 TYR         0.1387
     53 C          -6.2540   10.7310   -1.0280 C.2       1 TYR         0.2010
     54 O          -6.0980   10.2010   -2.1110 O.2       1 TYR        -0.3946
     55 CB         -6.7800    9.8560    1.2710 C.3       1 TYR         0.0163
     56 CG         -7.3920    8.4930    1.0480 C.ar      1 TYR        -0.0493
     57 CD1        -7.8540    8.1310   -0.2240 C.ar      1 TYR        -0.0685
     58 CD2        -7.4990    7.5910    2.1130 C.ar      1 TYR        -0.0685
     59 CE1        -8.4220    6.8690   -0.4290 C.ar      1 TYR        -0.0398
     60 CE2        -8.0660    6.3290    1.9070 C.ar      1 TYR        -0.0398
     61 CZ         -8.5280    5.9680    0.6360 C.ar      1 TYR         0.0805
     62 OH         -9.0880    4.7230    0.4340 O.3       1 TYR        -0.3376
     63 H26        -5.0523   11.9204    1.2400 H         1 TYR         0.1885
     64 H27        -5.1714    9.1522   -0.0161 H         1 TYR         0.0821
     65 H28        -7.5560   10.6281    1.1628 H         1 TYR         0.0453
     66 H29        -6.3531    9.9046    2.2836 H         1 TYR         0.0453
     67 H30        -7.7714    8.8287   -1.0495 H         1 TYR         0.0530
     68 H31        -7.1423    7.8706    3.0977 H         1 TYR         0.0530
     69 H32        -8.7800    6.5893   -1.4132 H         1 TYR         0.0525
     70 H33        -8.1476    5.6304    2.7319 H         1 TYR         0.0525
     71 H34        -8.4502    4.0518    0.6466 H         1 TYR         0.2458
     72 N          -6.9190   11.8490   -0.9380 N.am      1 NH2        -0.2988
     73 H35        -7.3008   12.2712   -1.7602 H         1 NH2         0.1815
     74 H36        -7.0472   12.2842   -0.0468 H         1 NH2         0.1815
     75 C1          7.0720    9.7210    8.4260 C.3       1 GLY        -0.0319
     76 C2          8.3520    8.9010    8.2490 C.3       1 GLY        -0.0125
     77 C3          9.5660    9.7680    8.5890 C.3       1 GLY        -0.0483
     78 C4         10.8440    8.9450    8.4220 C.3       1 GLY        -0.0529
     79 C5         11.7190    9.5750    7.3370 C.3       1 GLY        -0.0531
     80 C6         12.6950   10.5650    7.9780 C.3       1 GLY        -0.0533
     81 C7         14.1230   10.2270    7.5430 C.3       1 GLY        -0.0559
     82 C8         14.2830   10.5110    6.0480 C.3       1 GLY        -0.0653
     83 H37         6.6927    9.6295    9.4545 H         1 GLY         0.0814
     84 H38         7.2562   10.7808    8.1960 H         1 GLY         0.0814
     85 H39         8.4267    8.5588    7.2063 H         1 GLY         0.0317
     86 H40         8.3247    8.0297    8.9198 H         1 GLY         0.0317
     87 H41         9.4878   10.1164    9.6294 H         1 GLY         0.0267
     88 H42         9.5978   10.6354    7.9133 H         1 GLY         0.0267
     89 H43        10.5825    7.9170    8.1309 H         1 GLY         0.0265
     90 H44        11.3957    8.9276    9.3735 H         1 GLY         0.0265
     91 H45        11.0816   10.1050    6.6140 H         1 GLY         0.0265
     92 H46        12.2844    8.7867    6.8186 H         1 GLY         0.0265
     93 H47        12.6196   10.4973    9.0733 H         1 GLY         0.0265
     94 H48        12.4456   11.5867    7.6557 H         1 GLY         0.0265
     95 H49        14.3231    9.1629    7.7372 H         1 GLY         0.0263
     96 H50        14.8348   10.8437    8.1113 H         1 GLY         0.0263
     97 H51        15.3095   10.2678    5.7364 H         1 GLY         0.0230
     98 H52        14.0832   11.5750    5.8534 H         1 GLY         0.0230
     99 H53        13.5714    9.8943    5.4794 H         1 GLY         0.0230
@<TRIPOS>BOND
     1   53   72 am 
     2    2    1 1  
     3    3    2 1  
     4    4    3 1  
     5    4    5 2  
     6    2    6 1  
     7    3    7 1  
     8    3    8 1  
     9   11   10 1  
    10   10   13 1  
    11   10    9 1  
    12    9   15 1  
    13   15   14 1  
    14   13   14 1  
    15   11   12 2  
    16   10   16 1  
    17   13   17 1  
    18   13   18 1  
    19   14   19 1  
    20   14   20 1  
    21   15   21 1  
    22   15   22 1  
    23    9    4 am 
    24   25   24 1  
    25   24   27 1  
    26   24   23 1  
    27   23   29 1  
    28   29   28 1  
    29   27   28 1  
    30   25   26 2  
    31   24   30 1  
    32   27   31 1  
    33   27   32 1  
    34   28   33 1  
    35   28   34 1  
    36   29   35 1  
    37   29   36 1  
    38   23   11 am 
    39   39   38 1  
    40   38   41 1  
    41   38   37 1  
    42   37   43 1  
    43   43   42 1  
    44   41   42 1  
    45   39   40 2  
    46   38   44 1  
    47   41   45 1  
    48   41   46 1  
    49   42   47 1  
    50   42   48 1  
    51   43   49 1  
    52   43   50 1  
    53   37   25 am 
    54   51   52 1  
    55   52   55 1  
    56   52   53 1  
    57   53   54 2  
    58   55   56 1  
    59   56   57 ar 
    60   56   58 ar 
    61   58   60 ar 
    62   60   61 ar 
    63   61   62 1  
    64   59   61 ar 
    65   57   59 ar 
    66   51   63 1  
    67   52   64 1  
    68   55   65 1  
    69   55   66 1  
    70   57   67 1  
    71   58   68 1  
    72   59   69 1  
    73   60   70 1  
    74   62   71 1  
    75   39   51 am 
    76    2   75 1  
    77   72   73 1  
    78   72   74 1  
    79   75   76 1  
    80   75   83 1  
    81   75   84 1  
    82   76   77 1  
    83   76   85 1  
    84   76   86 1  
    85   77   78 1  
    86   77   87 1  
    87   77   88 1  
    88   78   79 1  
    89   78   89 1  
    90   78   90 1  
    91   79   80 1  
    92   79   91 1  
    93   79   92 1  
    94   80   81 1  
    95   80   93 1  
    96   80   94 1  
    97   81   82 1  
    98   81   95 1  
    99   81   96 1  
   100   82   97 1  
   101   82   98 1  
   102   82   99 1  
@<TRIPOS>SUBSTRUCTURE
     1 GLY         1

