### 
### Created by X-TOOL on Mon Sep 10 21:12:48 2018
### 

@<TRIPOS>MOLECULE
1k9r_ligand
   89    92     1     0     0
SMALL
GAST_HUCK


@<TRIPOS>ATOM
      1 C           6.8370   15.2150    1.1390 C.2       1 ACE         0.1776
      2 O           5.8480   15.7360    1.6160 O.2       1 ACE        -0.3970
      3 CH3         7.2950   15.5600   -0.2800 C.3       1 ACE         0.0260
      4 H1          8.2020   14.9866   -0.5221 H         1 ACE         0.0467
      5 H2          7.5138   16.6362   -0.3432 H         1 ACE         0.0467
      6 H3          6.4985   15.3051   -0.9946 H         1 ACE         0.0467
      7 N           7.5760   14.3400    1.7650 N.am      1 PRO        -0.2520
      8 CA          7.7850   12.9940    1.1670 C.3       1 PRO         0.1337
      9 C           6.4400   12.3470    0.8180 C.2       1 PRO         0.2041
     10 O           5.3930   12.8900    1.0990 O.2       1 PRO        -0.3944
     11 CB          8.4920   12.2090    2.2660 C.3       1 PRO        -0.0104
     12 CG          8.0950   12.8820    3.5380 C.3       1 PRO        -0.0281
     13 CD          7.8370   14.3310    3.2110 C.3       1 PRO         0.0369
     14 H4          8.4105   13.0568    0.2643 H         1 PRO         0.0802
     15 H5          9.5828   12.2510    2.1306 H         1 PRO         0.0313
     16 H6          8.1624   11.1595    2.2647 H         1 PRO         0.0313
     17 H7          8.9057   12.8006    4.2770 H         1 PRO         0.0287
     18 H8          7.1829   12.4181    3.9416 H         1 PRO         0.0287
     19 H9          6.9644   14.7056    3.7661 H         1 PRO         0.0524
     20 H10         8.7164   14.9465    3.4514 H         1 PRO         0.0524
     21 N           6.4720   11.1870    0.2070 N.am      1 LEU        -0.2637
     22 CA          5.2050   10.4810   -0.1720 C.3       1 LEU         0.1314
     23 C           4.3850   11.3330   -1.1580 C.2       1 LEU         0.2064
     24 O           4.2940   12.5350   -1.0080 O.2       1 LEU        -0.3942
     25 CB          4.4390   10.2720    1.1390 C.3       1 LEU        -0.0101
     26 CG          3.2530    9.3390    0.8930 C.3       1 LEU        -0.0425
     27 CD1         3.7580    7.9040    0.7320 C.3       1 LEU        -0.0625
     28 CD2         2.2910    9.4120    2.0800 C.3       1 LEU        -0.0625
     29 H11         7.3537   10.7676   -0.0091 H         1 LEU         0.1883
     30 H12         5.4343    9.5105   -0.6362 H         1 LEU         0.0800
     31 H13         4.0726   11.2413    1.5081 H         1 LEU         0.0315
     32 H14         5.1088    9.8239    1.8877 H         1 LEU         0.0315
     33 H15         2.7281    9.6475   -0.0231 H         1 LEU         0.0298
     34 H16         2.9047    7.2327    0.5550 H         1 LEU         0.0232
     35 H17         4.2836    7.5953    1.6477 H         1 LEU         0.0232
     36 H18         4.4487    7.8520   -0.1225 H         1 LEU         0.0232
     37 H19         1.9284   10.4441    2.1951 H         1 LEU         0.0232
     38 H20         2.8153    9.1033    2.9964 H         1 LEU         0.0232
     39 H21         1.4375    8.7412    1.9021 H         1 LEU         0.0232
     40 N           3.8140   10.6820   -2.1470 N.am      1 PRO        -0.2498
     41 CA          3.0060   11.4060   -3.1600 C.3       1 PRO         0.1340
     42 C           1.6470   11.8190   -2.5750 C.2       1 PRO         0.2066
     43 O           0.8320   10.9730   -2.2690 O.2       1 PRO        -0.3942
     44 CB          2.8120   10.3750   -4.2680 C.3       1 PRO        -0.0104
     45 CG          2.9400    9.0490   -3.5890 C.3       1 PRO        -0.0281
     46 CD          3.8660    9.2360   -2.4160 C.3       1 PRO         0.0369
     47 H22         3.5381   12.2943   -3.5311 H         1 PRO         0.0802
     48 H23         3.5851   10.4892   -5.0421 H         1 PRO         0.0313
     49 H24         1.8170   10.4810   -4.7249 H         1 PRO         0.0313
     50 H25         3.3592    8.3080   -4.2855 H         1 PRO         0.0287
     51 H26         1.9542    8.7077   -3.2401 H         1 PRO         0.0287
     52 H27         3.5140    8.6635   -1.5451 H         1 PRO         0.0524
     53 H28         4.8889    8.9226   -2.6718 H         1 PRO         0.0524
     54 N           1.4360   13.1070   -2.4440 N.am      1 PRO        -0.2498
     55 CA          0.1490   13.6030   -1.8980 C.3       1 PRO         0.1337
     56 C          -0.9590   13.4600   -2.9480 C.2       1 PRO         0.2037
     57 O          -1.0280   14.2160   -3.8960 O.2       1 PRO        -0.3944
     58 CB          0.4270   15.0730   -1.6010 C.3       1 PRO        -0.0104
     59 CG          1.5450   15.4520   -2.5210 C.3       1 PRO        -0.0281
     60 CD          2.3540   14.2050   -2.7790 C.3       1 PRO         0.0369
     61 H29        -0.1316   13.0603   -0.9833 H         1 PRO         0.0802
     62 H30         0.7291   15.2045   -0.5515 H         1 PRO         0.0313
     63 H31        -0.4649   15.6836   -1.8051 H         1 PRO         0.0313
     64 H32         2.1764   16.2199   -2.0502 H         1 PRO         0.0287
     65 H33         1.1393   15.8402   -3.4669 H         1 PRO         0.0287
     66 H34         2.6606   14.1497   -3.8340 H         1 PRO         0.0524
     67 H35         3.2461   14.1782   -2.1360 H         1 PRO         0.0524
     68 N          -1.8240   12.4940   -2.7890 N.am      1 TYR        -0.2679
     69 CA         -2.9240   12.3060   -3.7840 C.3       1 TYR         0.1025
     70 C          -3.6690   13.6250   -4.0100 C.2       1 TYR         0.0619
     71 O          -3.5550   14.1670   -5.0960 O.co2     1 TYR        -0.5665
     72 CB         -3.8570   11.2660   -3.1560 C.3       1 TYR         0.0108
     73 CG         -4.4820   10.4080   -4.2390 C.ar      1 TYR        -0.0499
     74 CD1        -4.8900   10.9830   -5.4520 C.ar      1 TYR        -0.0686
     75 CD2        -4.6560    9.0360   -4.0260 C.ar      1 TYR        -0.0686
     76 CE1        -5.4690   10.1850   -6.4460 C.ar      1 TYR        -0.0398
     77 CE2        -5.2360    8.2380   -5.0200 C.ar      1 TYR        -0.0398
     78 CZ         -5.6420    8.8120   -6.2300 C.ar      1 TYR         0.0805
     79 OH         -6.2130    8.0270   -7.2100 O.3       1 TYR        -0.3376
     80 OXT        -4.3390   14.0690   -3.0910 O.co2     1 TYR        -0.5665
     81 H36        -1.7505   11.8808   -2.0025 H         1 TYR         0.1877
     82 H37        -2.5234   11.9399   -4.7408 H         1 TYR         0.0747
     83 H38        -4.6513   11.7806   -2.5955 H         1 TYR         0.0446
     84 H39        -3.2809   10.6260   -2.4716 H         1 TYR         0.0446
     85 H40        -4.7569   12.0457   -5.6196 H         1 TYR         0.0530
     86 H41        -4.3412    8.5899   -3.0896 H         1 TYR         0.0530
     87 H42        -5.7835   10.6299   -7.3831 H         1 TYR         0.0525
     88 H43        -5.3705    7.1756   -4.8521 H         1 TYR         0.0525
     89 H44        -7.0032    7.6236   -6.8706 H         1 TYR         0.2458
@<TRIPOS>BOND
     1    1    2 2  
     2    1    3 1  
     3    1    7 am 
     4    3    4 1  
     5    3    5 1  
     6    3    6 1  
     7    7    8 1  
     8    7   13 1  
     9    8    9 1  
    10    8   11 1  
    11    8   14 1  
    12    9   10 2  
    13    9   21 am 
    14   11   12 1  
    15   11   15 1  
    16   11   16 1  
    17   12   13 1  
    18   12   17 1  
    19   12   18 1  
    20   13   19 1  
    21   13   20 1  
    22   21   22 1  
    23   21   29 1  
    24   22   23 1  
    25   22   25 1  
    26   22   30 1  
    27   23   24 2  
    28   23   40 am 
    29   25   26 1  
    30   25   31 1  
    31   25   32 1  
    32   26   27 1  
    33   26   28 1  
    34   26   33 1  
    35   27   34 1  
    36   27   35 1  
    37   27   36 1  
    38   28   37 1  
    39   28   38 1  
    40   28   39 1  
    41   40   41 1  
    42   40   46 1  
    43   41   42 1  
    44   41   44 1  
    45   41   47 1  
    46   42   43 2  
    47   42   54 am 
    48   44   45 1  
    49   44   48 1  
    50   44   49 1  
    51   45   46 1  
    52   45   50 1  
    53   45   51 1  
    54   46   52 1  
    55   46   53 1  
    56   54   55 1  
    57   54   60 1  
    58   55   56 1  
    59   55   58 1  
    60   55   61 1  
    61   56   57 2  
    62   56   68 am 
    63   58   59 1  
    64   58   62 1  
    65   58   63 1  
    66   59   60 1  
    67   59   64 1  
    68   59   65 1  
    69   60   66 1  
    70   60   67 1  
    71   68   69 1  
    72   68   81 1  
    73   69   70 1  
    74   69   72 1  
    75   69   82 1  
    76   70   71 ar 
    77   70   80 ar 
    78   72   73 1  
    79   72   83 1  
    80   72   84 1  
    81   73   74 ar 
    82   73   75 ar 
    83   74   76 ar 
    84   74   85 1  
    85   75   77 ar 
    86   75   86 1  
    87   76   78 ar 
    88   76   87 1  
    89   77   78 ar 
    90   77   88 1  
    91   78   79 1  
    92   79   89 1  
@<TRIPOS>SUBSTRUCTURE
     1 ACE         1

