### 
### Created by X-TOOL on Mon Sep 10 21:12:48 2018
### 

@<TRIPOS>MOLECULE
1k9s_ligand
   36    38     1     0     0
SMALL
GAST_HUCK


@<TRIPOS>ATOM
      1 N1        144.5390   70.2480   64.7450 N.ar      1 FM2        -0.2786
      2 C2        143.7350   69.6980   63.7190 C.ar      1 FM2         0.1209
      3 N3        143.6510   68.3540   63.5120 N.ar      1 FM2        -0.2019
      4 C4        144.4160   67.6010   64.4170 C.ar      1 FM2         0.1785
      5 C5        145.2260   68.0640   65.4770 C.ar      1 FM2         0.2350
      6 C6        145.3290   69.4840   65.6940 C.ar      1 FM2         0.2215
      7 N6        146.0140   70.0600   66.5760 N.pl3     1 FM2        -0.2766
      8 N7        145.8110   67.0050   66.1390 N.pl3     1 FM2        -0.1581
      9 N8        145.3830   65.9490   65.5000 N.2       1 FM2        -0.1214
     10 C9        144.5380   66.2150   64.4360 C.2       1 FM2         0.1580
     11 C1'       144.0250   65.0110   63.6230 C.3       1 FM2         0.1597
     12 C2'       143.1050   65.3250   62.4020 C.3       1 FM2         0.1282
     13 O2'       141.8420   64.7020   62.5740 O.3       1 FM2        -0.3827
     14 C3'       143.9290   64.7870   61.1740 C.3       1 FM2         0.1154
     15 O3'       143.4490   63.5310   60.6600 O.3       1 FM2        -0.3862
     16 C4'       145.3520   64.6560   61.6690 C.3       1 FM2         0.1154
     17 O4'       145.1990   64.3580   63.0970 O.3       1 FM2        -0.3420
     18 C5'       146.1880   65.9620   61.4280 C.3       1 FM2         0.0733
     19 O5'       147.3460   66.0020   62.2670 O.3       1 FM2        -0.3924
     20 C11       144.6170   71.6780   64.7690 C.3       1 FM2         0.0145
     21 H1        143.1693   70.3654   63.0789 H         1 FM2         0.1295
     22 H2        146.5691   69.5038   67.2419 H         1 FM2         0.2157
     23 H3        146.0204   71.0884   66.6331 H         1 FM2         0.2157
     24 H4        146.4420   67.0390   66.9524 H         1 FM2         0.2942
     25 H5        143.4808   64.3386   64.3024 H         1 FM2         0.0933
     26 H6        142.9497   66.4092   62.3006 H         1 FM2         0.0689
     27 H7        141.9606   63.7620   62.6433 H         1 FM2         0.2104
     28 H8        143.8864   65.5265   60.3608 H         1 FM2         0.0650
     29 H9        142.5482   63.6302   60.3750 H         1 FM2         0.2100
     30 H10       145.8545   63.8209   61.1590 H         1 FM2         0.0650
     31 H11       145.5573   66.8363   61.6465 H         1 FM2         0.0584
     32 H12       146.5070   65.9938   60.3758 H         1 FM2         0.0584
     33 H13       147.8302   66.8019   62.0986 H         1 FM2         0.2095
     34 H14       143.9606   72.0941   63.9906 H         1 FM2         0.0418
     35 H15       145.6542   71.9919   64.5802 H         1 FM2         0.0418
     36 H16       144.2961   72.0463   65.7546 H         1 FM2         0.0418
@<TRIPOS>BOND
     1    1    2 ar 
     2    1    6 ar 
     3    1   20 1  
     4    2    3 ar 
     5    3    4 ar 
     6    4    5 ar 
     7    4   10 1  
     8    5    6 ar 
     9    5    8 1  
    10    6    7 1  
    11    8    9 1  
    12    9   10 2  
    13   10   11 1  
    14   11   12 1  
    15   11   17 1  
    16   12   13 1  
    17   12   14 1  
    18   14   15 1  
    19   14   16 1  
    20   16   17 1  
    21   16   18 1  
    22   18   19 1  
    23    2   21 1  
    24    7   22 1  
    25    7   23 1  
    26    8   24 1  
    27   11   25 1  
    28   12   26 1  
    29   13   27 1  
    30   14   28 1  
    31   15   29 1  
    32   16   30 1  
    33   18   31 1  
    34   18   32 1  
    35   19   33 1  
    36   20   34 1  
    37   20   35 1  
    38   20   36 1  
@<TRIPOS>SUBSTRUCTURE
     1 FM2         1

