### 
### Created by X-TOOL on Mon Sep 10 21:12:49 2018
### 

@<TRIPOS>MOLECULE
1kdk_ligand
   51    54     1     0     0
SMALL
GAST_HUCK


@<TRIPOS>ATOM
      1 C1         24.0520   10.0270   31.5730 C.3       1 DHT        -0.0310
      2 C2         25.5770   10.2030   31.4680 C.3       1 DHT         0.0216
      3 C3         26.0140   11.6250   31.6660 C.2       1 DHT         0.1053
      4 O3         26.8450   12.2080   30.9600 O.2       1 DHT        -0.3916
      5 C4         25.3430   12.3870   32.7590 C.3       1 DHT         0.0244
      6 C5         23.8560   12.1460   32.9140 C.3       1 DHT        -0.0194
      7 C6         23.2530   12.8000   34.1710 C.3       1 DHT        -0.0473
      8 C7         21.7230   12.7710   34.0700 C.3       1 DHT        -0.0493
      9 C8         21.2400   11.2890   34.0470 C.3       1 DHT        -0.0343
     10 C9         21.8950   10.5780   32.8330 C.3       1 DHT        -0.0320
     11 C10        23.4260   10.6590   32.8330 C.3       1 DHT        -0.0219
     12 C11        21.4010    9.0980   32.7140 C.3       1 DHT        -0.0489
     13 C12        19.8740    9.0050   32.7010 C.3       1 DHT        -0.0447
     14 C13        19.2260    9.7660   33.8590 C.3       1 DHT        -0.0030
     15 C14        19.7430   11.2230   33.8270 C.3       1 DHT        -0.0301
     16 C15        18.8410   11.9420   34.8510 C.3       1 DHT        -0.0470
     17 C16        17.4550   11.2710   34.6930 C.3       1 DHT        -0.0261
     18 C17        17.7560   10.0950   33.7410 C.3       1 DHT         0.0609
     19 O17        16.8200    9.0140   33.9480 O.3       1 DHT        -0.3912
     20 C18        19.5610    9.0160   35.1640 C.3       1 DHT        -0.0569
     21 C19        24.0270    9.9370   34.0760 C.3       1 DHT        -0.0588
     22 H1         23.5900   10.4907   30.6890 H         1 DHT         0.0296
     23 H2         23.8292    8.9498   31.5807 H         1 DHT         0.0296
     24 H3         25.9011    9.8716   30.4704 H         1 DHT         0.0494
     25 H4         26.0565    9.5780   32.2358 H         1 DHT         0.0494
     26 H5         25.4925   13.4592   32.5639 H         1 DHT         0.0497
     27 H6         25.8295   12.1155   33.7075 H         1 DHT         0.0497
     28 H7         23.3888   12.6451   32.0523 H         1 DHT         0.0331
     29 H8         23.5971   13.8422   34.2446 H         1 DHT         0.0270
     30 H9         23.5733   12.2442   35.0646 H         1 DHT         0.0270
     31 H10        21.4054   13.2760   33.1458 H         1 DHT         0.0268
     32 H11        21.2869   13.2868   34.9382 H         1 DHT         0.0268
     33 H12        21.5126   10.7886   34.9879 H         1 DHT         0.0306
     34 H13        21.5511   11.1077   31.9324 H         1 DHT         0.0309
     35 H14        21.7847    8.5251   33.5710 H         1 DHT         0.0268
     36 H15        21.7913    8.6669   31.7803 H         1 DHT         0.0268
     37 H16        19.5854    7.9459   32.7708 H         1 DHT         0.0271
     38 H17        19.5040    9.4242   31.7537 H         1 DHT         0.0271
     39 H18        19.5510   11.6577   32.8350 H         1 DHT         0.0310
     40 H19        18.7794   13.0170   34.6263 H         1 DHT         0.0269
     41 H20        19.2254   11.8023   35.8721 H         1 DHT         0.0269
     42 H21        16.7264   11.9649   34.2486 H         1 DHT         0.0290
     43 H22        17.0756   10.9111   35.6607 H         1 DHT         0.0290
     44 H23        17.5938   10.4445   32.7107 H         1 DHT         0.0599
     45 H24        15.9376    9.3245   33.7822 H         1 DHT         0.2098
     46 H25        19.1625    7.9921   35.1111 H         1 DHT         0.0236
     47 H26        19.1070    9.5425   36.0164 H         1 DHT         0.0236
     48 H27        20.6525    8.9783   35.2954 H         1 DHT         0.0236
     49 H28        25.1241   10.0117   34.0485 H         1 DHT         0.0235
     50 H29        23.7312    8.8776   34.0633 H         1 DHT         0.0235
     51 H30        23.6501   10.4120   34.9938 H         1 DHT         0.0235
@<TRIPOS>BOND
     1    1   11 1  
     2    1    2 1  
     3    2    3 1  
     4    3    5 1  
     5    3    4 2  
     6    5    6 1  
     7    6   11 1  
     8    6    7 1  
     9    7    8 1  
    10    8    9 1  
    11    9   15 1  
    12    9   10 1  
    13   10   12 1  
    14   10   11 1  
    15   11   21 1  
    16   12   13 1  
    17   13   14 1  
    18   14   20 1  
    19   14   18 1  
    20   14   15 1  
    21   15   16 1  
    22   16   17 1  
    23   17   18 1  
    24   18   19 1  
    25    1   22 1  
    26    1   23 1  
    27    2   24 1  
    28    2   25 1  
    29    5   26 1  
    30    5   27 1  
    31    6   28 1  
    32    7   29 1  
    33    7   30 1  
    34    8   31 1  
    35    8   32 1  
    36    9   33 1  
    37   10   34 1  
    38   12   35 1  
    39   12   36 1  
    40   13   37 1  
    41   13   38 1  
    42   15   39 1  
    43   16   40 1  
    44   16   41 1  
    45   17   42 1  
    46   17   43 1  
    47   18   44 1  
    48   19   45 1  
    49   20   46 1  
    50   20   47 1  
    51   20   48 1  
    52   21   49 1  
    53   21   50 1  
    54   21   51 1  
@<TRIPOS>SUBSTRUCTURE
     1 DHT         1

