### 
### Created by X-TOOL on Mon Sep 10 21:12:49 2018
### 

@<TRIPOS>MOLECULE
1ke5_ligand
   38    40     1     0     0
SMALL
GAST_HUCK


@<TRIPOS>ATOM
      1 N1         -9.5330   52.7730   40.6960 N.am      1 LS1        -0.2443
      2 C2         -9.9690   51.9100   39.7440 C.2       1 LS1         0.2007
      3 C3         -9.3390   50.5690   39.9840 C.2       1 LS1         0.0596
      4 C4         -7.5730   49.8180   41.8530 C.ar      1 LS1        -0.0791
      5 C5         -6.8050   50.3380   43.0180 C.ar      1 LS1        -0.0852
      6 C6         -6.9720   51.7510   43.4380 C.ar      1 LS1        -0.0831
      7 C7         -7.8640   52.6690   42.6680 C.ar      1 LS1        -0.0491
      8 C8         -8.6350   52.1420   41.5260 C.ar      1 LS1         0.0620
      9 C9         -8.4880   50.7530   41.1260 C.ar      1 LS1        -0.0121
     10 O11       -10.7110   52.1550   38.7830 O.2       1 LS1        -0.3983
     11 C12        -9.4920   49.4720   39.2340 C.2       1 LS1         0.0578
     12 N17       -10.2290   49.4510   37.9610 N.pl3     1 LS1        -0.2598
     13 C20       -10.2480   48.4250   37.0840 C.ar      1 LS1         0.0700
     14 C21        -9.1600   47.3970   36.9390 C.ar      1 LS1        -0.0344
     15 C22        -9.2920   46.3320   35.9690 C.ar      1 LS1        -0.0440
     16 C23       -10.4960   46.2570   35.1340 C.ar      1 LS1         0.0971
     17 C24       -11.5720   47.2770   35.2400 C.ar      1 LS1        -0.0440
     18 C25       -11.4480   48.3620   36.2220 C.ar      1 LS1        -0.0344
     19 S30       -10.4970   45.1020   33.8130 S.o2      1 LS1         0.0632
     20 O31        -9.4930   45.5150   32.8900 O.2       1 LS1        -0.1517
     21 O32       -11.8370   44.9790   33.3220 O.2       1 LS1        -0.1517
     22 N33       -10.1440   43.5980   34.3930 N.am      1 LS1        -0.2516
     23 C35        -8.9430   43.1360   35.0740 C.3       1 LS1         0.0150
     24 H1         -9.8216   53.7266   40.7817 H         1 LS1         0.2231
     25 H2         -7.4716   48.7856   41.5386 H         1 LS1         0.0505
     26 H3         -6.1266   49.6866   43.5570 H         1 LS1         0.0470
     27 H4         -6.4432   52.1197   44.3095 H         1 LS1         0.0513
     28 H5         -7.9441   53.7137   42.9460 H         1 LS1         0.0480
     29 H6         -9.0461   48.5427   39.5854 H         1 LS1         0.1224
     30 H7        -10.7763   50.2892   37.7186 H         1 LS1         0.2258
     31 H8         -8.2751   47.4542   37.5626 H         1 LS1         0.0545
     32 H9         -8.5059   45.5936   35.8597 H         1 LS1         0.0608
     33 H10       -12.4426   47.2204   34.5966 H         1 LS1         0.0608
     34 H11       -12.2281   49.1090   36.3140 H         1 LS1         0.0545
     35 H12       -10.8544   42.9073   34.2578 H         1 LS1         0.1668
     36 H13        -9.0491   42.0694   35.3213 H         1 LS1         0.0439
     37 H14        -8.8004   43.7143   35.9988 H         1 LS1         0.0439
     38 H15        -8.0722   43.2751   34.4165 H         1 LS1         0.0439
@<TRIPOS>BOND
     1    1    8 1  
     2    1    2 am 
     3    2   10 2  
     4    2    3 1  
     5    3   11 2  
     6    3    9 1  
     7    9    8 ar 
     8    9    4 ar 
     9    4    5 ar 
    10    5    6 ar 
    11    6    7 ar 
    12    7    8 ar 
    13   11   12 1  
    14   12   13 1  
    15   13   18 ar 
    16   13   14 ar 
    17   14   15 ar 
    18   15   16 ar 
    19   16   19 1  
    20   16   17 ar 
    21   17   18 ar 
    22   19   22 am 
    23   19   21 2  
    24   19   20 2  
    25   22   23 1  
    26    1   24 1  
    27    4   25 1  
    28    5   26 1  
    29    6   27 1  
    30    7   28 1  
    31   11   29 1  
    32   12   30 1  
    33   14   31 1  
    34   15   32 1  
    35   17   33 1  
    36   18   34 1  
    37   22   35 1  
    38   23   36 1  
    39   23   37 1  
    40   23   38 1  
@<TRIPOS>SUBSTRUCTURE
     1 LS1         1

