### 
### Created by X-TOOL on Mon Sep 10 21:12:49 2018
### 

@<TRIPOS>MOLECULE
1ke6_ligand
   42    45     1     0     0
SMALL
GAST_HUCK


@<TRIPOS>ATOM
      1 N1         26.5500   15.5690   13.4080 N.am      1 LS2        -0.2355
      2 C2         26.0960   14.6940   12.4600 C.2       1 LS2         0.2433
      3 C3         26.7910   13.3850   12.6280 C.2       1 LS2         0.1434
      4 C4         28.5820   12.6570   14.4330 C.ar      1 LS2         0.0537
      5 C5         29.2930   13.1430   15.6760 C.ar      1 LS2         0.0242
      6 C6         29.0870   14.5130   16.1560 C.ar      1 LS2        -0.0641
      7 C7         28.1730   15.4350   15.4190 C.ar      1 LS2        -0.0464
      8 C8         27.4450   14.9380   14.2280 C.ar      1 LS2         0.0684
      9 C9         27.6550   13.5730   13.7640 C.ar      1 LS2         0.0398
     10 O11        25.2610   14.8730   11.5720 O.2       1 LS2        -0.3718
     11 N12        26.5880   12.2050   11.8110 N.2       1 LS2        -0.1720
     12 S13        29.0340   11.0610   14.0640 S.3       1 LS2        -0.0046
     13 C14        30.0340   10.9520   15.4460 C.2       1 LS2         0.0746
     14 N15        30.0640   12.0930   16.1860 N.2       1 LS2        -0.3042
     15 N19        26.1900   12.2200   10.6240 N.pl3     1 LS2        -0.2098
     16 C21        25.9420   11.1170    9.8670 C.ar      1 LS2         0.0725
     17 C22        24.6700   11.0850    9.1060 C.ar      1 LS2        -0.0424
     18 C23        24.2740    9.8510    8.3950 C.ar      1 LS2        -0.0673
     19 C24        25.1700    8.6650    8.4120 C.ar      1 LS2        -0.0310
     20 C25        26.4270    8.6910    9.1900 C.ar      1 LS2        -0.0673
     21 C26        26.8640    9.9290    9.8230 C.ar      1 LS2        -0.0424
     22 C29        24.8910    7.4670    7.5500 C.3       1 LS2         0.1130
     23 S34        26.0100    7.1890    6.1740 S.o2      1 LS2         0.0472
     24 O35        26.3310    8.4560    5.5640 O.2       1 LS2        -0.1536
     25 O36        25.4880    6.1380    5.3390 O.2       1 LS2        -0.1536
     26 N37        27.4280    6.5770    6.7500 N.am      1 LS2        -0.2533
     27 C39        27.4910    5.3730    7.5610 C.3       1 LS2         0.0149
     28 H1         26.2700   16.5256   13.4895 H         1 LS2         0.2250
     29 H2         29.5991   14.8569   17.0474 H         1 LS2         0.0552
     30 H3         28.0432   16.4584   15.7520 H         1 LS2         0.0470
     31 H4         30.5933   10.0553   15.7088 H         1 LS2         0.1205
     32 H5         26.0384   13.1399   10.1861 H         1 LS2         0.2352
     33 H6         24.0337   11.9619    9.0712 H         1 LS2         0.0524
     34 H7         23.3311    9.8110    7.8617 H         1 LS2         0.0531
     35 H8         27.0226    7.7908    9.2895 H         1 LS2         0.0531
     36 H9         27.8530    9.9937   10.2619 H         1 LS2         0.0524
     37 H10        23.8774    7.5809    7.1381 H         1 LS2         0.0661
     38 H11        24.9269    6.5764    8.1945 H         1 LS2         0.0661
     39 H12        28.2797    7.0538    6.5324 H         1 LS2         0.1667
     40 H13        28.5380    5.1630    7.8248 H         1 LS2         0.0439
     41 H14        27.0792    4.5260    6.9926 H         1 LS2         0.0439
     42 H15        26.9035    5.5184    8.4795 H         1 LS2         0.0439
@<TRIPOS>BOND
     1    1    8 1  
     2    1    2 am 
     3    2   10 2  
     4    2    3 1  
     5    3   11 2  
     6    3    9 1  
     7    9    8 ar 
     8    9    4 ar 
     9    4   12 1  
    10    4    5 ar 
    11    5   14 1  
    12    5    6 ar 
    13    6    7 ar 
    14    7    8 ar 
    15   14   13 2  
    16   13   12 1  
    17   11   15 1  
    18   15   16 1  
    19   16   21 ar 
    20   16   17 ar 
    21   17   18 ar 
    22   18   19 ar 
    23   19   22 1  
    24   19   20 ar 
    25   20   21 ar 
    26   22   23 1  
    27   23   26 am 
    28   23   25 2  
    29   23   24 2  
    30   26   27 1  
    31    1   28 1  
    32    6   29 1  
    33    7   30 1  
    34   13   31 1  
    35   15   32 1  
    36   17   33 1  
    37   18   34 1  
    38   20   35 1  
    39   21   36 1  
    40   22   37 1  
    41   22   38 1  
    42   26   39 1  
    43   27   40 1  
    44   27   41 1  
    45   27   42 1  
@<TRIPOS>SUBSTRUCTURE
     1 LS2         1

