### 
### Created by X-TOOL on Mon Sep 10 21:12:49 2018
### 

@<TRIPOS>MOLECULE
1ke7_ligand
   43    47     1     0     0
SMALL
GAST_HUCK


@<TRIPOS>ATOM
      1 O5        -10.9100   52.3530   11.7630 O.2       1 LS3        -0.3981
      2 C6        -10.1870   51.8690   12.6200 C.2       1 LS3         0.2012
      3 N7         -9.6420   52.5270   13.6990 N.am      1 LS3        -0.2435
      4 C8         -8.8130   51.6860   14.3930 C.ar      1 LS3         0.0632
      5 C9         -7.9970   51.9080   15.6130 C.ar      1 LS3        -0.0479
      6 C10        -7.1340   50.7930   16.1090 C.ar      1 LS3        -0.0726
      7 C11        -7.0150   49.4940   15.3550 C.ar      1 LS3        -0.0087
      8 C12        -6.1390   48.4270   15.8200 C.2       1 LS3         0.1308
      9 O13        -5.8340   48.2230   17.1420 O.3       1 LS3        -0.2322
     10 C14        -5.1820   47.0170   17.1810 C.2       1 LS3         0.1608
     11 N15        -4.8760   46.5750   15.9410 N.2       1 LS3        -0.3083
     12 C16        -5.4640   47.4140   15.0610 C.2       1 LS3         0.0020
     13 C17        -7.8730   49.3310   14.1390 C.ar      1 LS3        -0.0697
     14 C18        -8.7920   50.4060   13.7060 C.ar      1 LS3        -0.0119
     15 C19        -9.7530   50.4380   12.6230 C.2       1 LS3         0.0593
     16 C20       -10.1730   49.4120   11.8460 C.2       1 LS3         0.0564
     17 N21       -10.9420   49.3820   10.5820 N.pl3     1 LS3        -0.2647
     18 C22       -11.1170   48.2830    9.7730 C.ar      1 LS3         0.0568
     19 C23       -10.0100   47.3440    9.3940 C.ar      1 LS3        -0.0395
     20 C24       -10.2970   46.1970    8.5330 C.ar      1 LS3        -0.0265
     21 C25        -9.3360   45.1630    8.0910 C.3       1 LS3         0.0964
     22 S26        -9.9210   44.4500    6.5620 S.o2      1 LS3        -0.0154
     23 O27        -9.6840   43.0320    6.5110 O.2       1 LS3        -0.1707
     24 O28        -9.4570   45.3080    5.5090 O.2       1 LS3        -0.1707
     25 C29       -11.6310   44.8710    6.9850 C.3       1 LS3         0.0942
     26 C30       -11.6380   45.9950    7.9680 C.ar      1 LS3        -0.0285
     27 C31       -12.7620   46.8820    8.3510 C.ar      1 LS3        -0.0731
     28 C32       -12.4880   48.0360    9.2410 C.ar      1 LS3        -0.0493
     29 H1         -9.8246   53.4800   13.9410 H         1 LS3         0.2244
     30 H2         -8.0264   52.8586   16.1331 H         1 LS3         0.0486
     31 H3         -6.5810   50.9219   17.0324 H         1 LS3         0.0515
     32 H4         -4.9406   46.4816   18.0981 H         1 LS3         0.1385
     33 H5         -5.4317   47.3359   13.9753 H         1 LS3         0.0505
     34 H6         -7.8199   48.4115   13.5674 H         1 LS3         0.0497
     35 H7         -9.8936   48.4280   12.2198 H         1 LS3         0.1221
     36 H8        -11.3854   50.2617   10.2813 H         1 LS3         0.2241
     37 H9         -9.0027   47.5147    9.7564 H         1 LS3         0.0466
     38 H10        -9.2576   44.3788    8.8584 H         1 LS3         0.0648
     39 H11        -8.3483   45.6202    7.9316 H         1 LS3         0.0648
     40 H12       -12.1259   43.9939    7.4274 H         1 LS3         0.0630
     41 H13       -12.1693   45.1759    6.0755 H         1 LS3         0.0630
     42 H14       -13.7652   46.6908    7.9875 H         1 LS3         0.0514
     43 H15       -13.2948   48.7088    9.5084 H         1 LS3         0.0473
@<TRIPOS>BOND
     1    1    2 2  
     2    2   15 1  
     3    2    3 am 
     4    3    4 1  
     5    4   14 ar 
     6    4    5 ar 
     7    5    6 ar 
     8    6    7 ar 
     9    7   13 ar 
    10    7    8 1  
    11    8   12 2  
    12    8    9 1  
    13    9   10 1  
    14   10   11 2  
    15   11   12 1  
    16   13   14 ar 
    17   14   15 1  
    18   15   16 2  
    19   16   17 1  
    20   17   18 1  
    21   18   28 ar 
    22   18   19 ar 
    23   19   20 ar 
    24   20   26 ar 
    25   20   21 1  
    26   21   22 1  
    27   22   25 1  
    28   22   24 2  
    29   22   23 2  
    30   25   26 1  
    31   26   27 ar 
    32   27   28 ar 
    33    3   29 1  
    34    5   30 1  
    35    6   31 1  
    36   10   32 1  
    37   12   33 1  
    38   13   34 1  
    39   16   35 1  
    40   17   36 1  
    41   19   37 1  
    42   21   38 1  
    43   21   39 1  
    44   25   40 1  
    45   25   41 1  
    46   27   42 1  
    47   28   43 1  
@<TRIPOS>SUBSTRUCTURE
     1 LS3         1

