### 
### Created by X-TOOL on Mon Sep 10 21:12:49 2018
### 

@<TRIPOS>MOLECULE
1ke8_ligand
   41    44     1     0     0
SMALL
GAST_HUCK


@<TRIPOS>ATOM
      1 O5        -10.8190   52.1550   11.8230 O.2       1 LS4        -0.3983
      2 C6        -10.0070   51.9120   12.7190 C.2       1 LS4         0.2007
      3 N7         -9.5010   52.7810   13.6290 N.am      1 LS4        -0.2443
      4 C8         -8.6060   52.1330   14.4470 C.ar      1 LS4         0.0620
      5 C9         -7.8120   52.6600   15.5750 C.ar      1 LS4        -0.0491
      6 C10        -6.9680   51.7230   16.3700 C.ar      1 LS4        -0.0831
      7 C11        -6.9040   50.2770   16.0150 C.ar      1 LS4        -0.0852
      8 C12        -7.6760   49.7610   14.8490 C.ar      1 LS4        -0.0791
      9 C13        -8.5240   50.7210   14.0790 C.ar      1 LS4        -0.0121
     10 C14        -9.3810   50.5430   12.9320 C.2       1 LS4         0.0596
     11 C15        -9.5920   49.4490   12.1800 C.2       1 LS4         0.0578
     12 N16       -10.3110   49.4570   10.8820 N.pl3     1 LS4        -0.2598
     13 C17       -10.2960   48.4740    9.9550 C.ar      1 LS4         0.0700
     14 C18        -9.1870   47.4670    9.7740 C.ar      1 LS4        -0.0344
     15 C19        -9.2960   46.4410    8.7540 C.ar      1 LS4        -0.0433
     16 C20       -10.4760   46.4250    7.8570 C.ar      1 LS4         0.1049
     17 C21       -11.5790   47.3970    8.0280 C.ar      1 LS4        -0.0433
     18 C22       -11.4850   48.4260    9.0790 C.ar      1 LS4        -0.0344
     19 S23       -10.5600   45.1590    6.6180 S.o2      1 LS4         0.0934
     20 O24       -11.6480   45.3940    5.7120 O.2       1 LS4        -0.1443
     21 O25        -9.2440   45.0910    6.0680 O.2       1 LS4        -0.1443
     22 N26       -10.8840   43.7170    7.4040 N.am      1 LS4        -0.1453
     23 C27       -12.1880   43.4200    8.0910 C.2       1 LS4         0.2005
     24 S28       -12.3050   42.4420    9.4760 S.3       1 LS4         0.0063
     25 C29       -13.9770   42.6840    9.6300 C.2       1 LS4        -0.0108
     26 C30       -14.4510   43.4440    8.5470 C.2       1 LS4        -0.0509
     27 N31       -13.4300   43.8560    7.7220 N.2       1 LS4        -0.3304
     28 H1         -9.7429   53.7490   13.6951 H         1 LS4         0.2231
     29 H2         -7.8425   53.7151   15.8219 H         1 LS4         0.0480
     30 H3         -6.3967   52.0961   17.2123 H         1 LS4         0.0513
     31 H4         -6.2960   49.6005   16.6047 H         1 LS4         0.0470
     32 H5         -7.6237   48.7157   14.5666 H         1 LS4         0.0505
     33 H6         -9.2113   48.4968   12.5465 H         1 LS4         0.1224
     34 H7        -10.8753   50.2914   10.6671 H         1 LS4         0.2258
     35 H8         -8.3079   47.5102   10.4067 H         1 LS4         0.0545
     36 H9         -8.5200   45.6914    8.6486 H         1 LS4         0.0609
     37 H10       -12.4502   47.3524    7.3845 H         1 LS4         0.0609
     38 H11       -12.2855   49.1453    9.2089 H         1 LS4         0.0545
     39 H12       -10.1718   43.0152    7.4173 H         1 LS4         0.2341
     40 H13       -14.5913   42.3068   10.4462 H         1 LS4         0.0553
     41 H14       -15.5013   43.6788    8.3807 H         1 LS4         0.0489
@<TRIPOS>BOND
     1    1    2 2  
     2    2   10 1  
     3    2    3 am 
     4    3    4 1  
     5    4    9 ar 
     6    4    5 ar 
     7    5    6 ar 
     8    6    7 ar 
     9    7    8 ar 
    10    8    9 ar 
    11    9   10 1  
    12   10   11 2  
    13   11   12 1  
    14   12   13 1  
    15   13   18 ar 
    16   13   14 ar 
    17   14   15 ar 
    18   15   16 ar 
    19   16   19 1  
    20   16   17 ar 
    21   17   18 ar 
    22   19   22 am 
    23   19   21 2  
    24   19   20 2  
    25   22   23 am 
    26   23   27 2  
    27   23   24 1  
    28   24   25 1  
    29   25   26 2  
    30   26   27 1  
    31    3   28 1  
    32    5   29 1  
    33    6   30 1  
    34    7   31 1  
    35    8   32 1  
    36   11   33 1  
    37   12   34 1  
    38   14   35 1  
    39   15   36 1  
    40   17   37 1  
    41   18   38 1  
    42   22   39 1  
    43   25   40 1  
    44   26   41 1  
@<TRIPOS>SUBSTRUCTURE
     1 LS4         1

