### 
### Created by X-TOOL on Mon Sep 10 21:12:49 2018
### 

@<TRIPOS>MOLECULE
1ke9_ligand
   41    43     1     0     0
SMALL
GAST_HUCK


@<TRIPOS>ATOM
      1 N1         -9.5700   52.7640   13.5930 N.am      1 LS5        -0.2443
      2 C2        -10.0190   51.8650   12.6860 C.2       1 LS5         0.2007
      3 C3         -9.3120   50.5910   12.9160 C.2       1 LS5         0.0596
      4 C4         -7.7000   49.9500   14.8400 C.ar      1 LS5        -0.0791
      5 C5         -7.0590   50.4430   16.0050 C.ar      1 LS5        -0.0852
      6 C6         -7.2090   51.7970   16.3550 C.ar      1 LS5        -0.0831
      7 C7         -7.9970   52.6630   15.5720 C.ar      1 LS5        -0.0491
      8 C8         -8.6820   52.1550   14.4540 C.ar      1 LS5         0.0620
      9 C9         -8.5150   50.8400   14.0960 C.ar      1 LS5        -0.0121
     10 O11       -10.8660   52.0250   11.8180 O.2       1 LS5        -0.3983
     11 C12        -9.3980   49.4830   12.1580 C.2       1 LS5         0.0578
     12 N17       -10.2490   49.4850   10.9500 N.pl3     1 LS5        -0.2598
     13 C20       -10.3340   48.4460   10.0880 C.ar      1 LS5         0.0700
     14 C21       -11.3950   48.4690    9.1760 C.ar      1 LS5        -0.0344
     15 C22       -11.5090   47.4790    8.1940 C.ar      1 LS5        -0.0440
     16 C23       -10.5670   46.4430    8.1460 C.ar      1 LS5         0.0969
     17 C24        -9.5480   46.3760    9.0990 C.ar      1 LS5        -0.0440
     18 C25        -9.4230   47.3750   10.0590 C.ar      1 LS5        -0.0344
     19 S30       -10.7040   45.2560    6.8260 S.o2      1 LS5         0.0648
     20 O31       -10.2000   43.9530    7.1760 O.2       1 LS5        -0.1519
     21 O32       -10.2260   45.9490    5.6880 O.2       1 LS5        -0.1519
     22 N33       -12.3310   45.0510    6.7050 N.am      1 LS5        -0.1848
     23 C35       -13.0290   44.3140    7.6640 C.cat     1 LS5         0.3163
     24 N36       -12.4570   43.3530    8.4190 N.pl3     1 LS5        -0.2580
     25 N37       -14.3340   44.5470    7.8660 N.pl3     1 LS5        -0.2580
     26 H1         -9.8417   53.7256   13.6326 H         1 LS5         0.2231
     27 H2         -7.5703   48.9204   14.5268 H         1 LS5         0.0505
     28 H3         -6.4589   49.7823   16.6202 H         1 LS5         0.0470
     29 H4         -6.7116   52.1791   17.2391 H         1 LS5         0.0513
     30 H5         -8.0748   53.7131   15.8293 H         1 LS5         0.0480
     31 H6         -8.8425   48.5878   12.4336 H         1 LS5         0.1224
     32 H7        -10.8099   50.3261   10.7529 H         1 LS5         0.2258
     33 H8        -12.1343   49.2599    9.2308 H         1 LS5         0.0545
     34 H9        -12.3201   47.5133    7.4757 H         1 LS5         0.0608
     35 H10        -8.8533   45.5439    9.0905 H         1 LS5         0.0608
     36 H11        -8.6211   47.3278   10.7868 H         1 LS5         0.0545
     37 H12       -12.8255   45.4581    5.9371 H         1 LS5         0.1677
     38 H13       -13.0197   42.8398    9.1124 H         1 LS5         0.3194
     39 H14       -11.4577   43.1327    8.3019 H         1 LS5         0.3194
     40 H15       -14.8192   45.2701    7.3160 H         1 LS5         0.3194
     41 H16       -14.8512   44.0028    8.5712 H         1 LS5         0.3194
@<TRIPOS>BOND
     1    1    8 1  
     2    1    2 am 
     3    2   10 2  
     4    2    3 1  
     5    3   11 2  
     6    3    9 1  
     7    9    8 ar 
     8    9    4 ar 
     9    4    5 ar 
    10    5    6 ar 
    11    6    7 ar 
    12    7    8 ar 
    13   11   12 1  
    14   12   13 1  
    15   13   18 ar 
    16   13   14 ar 
    17   14   15 ar 
    18   15   16 ar 
    19   16   19 1  
    20   16   17 ar 
    21   17   18 ar 
    22   19   22 am 
    23   19   21 2  
    24   19   20 2  
    25   22   23 ar 
    26   23   25 ar 
    27   23   24 ar 
    28    1   26 1  
    29    4   27 1  
    30    5   28 1  
    31    6   29 1  
    32    7   30 1  
    33   11   31 1  
    34   12   32 1  
    35   14   33 1  
    36   15   34 1  
    37   17   35 1  
    38   18   36 1  
    39   22   37 1  
    40   24   38 1  
    41   24   39 1  
    42   25   40 1  
    43   25   41 1  
@<TRIPOS>SUBSTRUCTURE
     1 LS5         1

