### 
### Created by X-TOOL on Mon Sep 10 21:12:49 2018
### 

@<TRIPOS>MOLECULE
1kf6_ligand
   39    40     1     0     0
SMALL
GAST_HUCK


@<TRIPOS>ATOM
      1 C1         25.0950   16.1830  -54.7110 C.2       1 HQO         0.2702
      2 O1         24.3460   16.5860  -55.6420 O.2       1 HQO        -0.2814
      3 C2         25.9340   17.1060  -54.0530 C.2       1 HQO         0.1655
      4 C3         26.7890   16.6710  -52.9970 C.2       1 HQO         0.2276
      5 N1         26.8000   15.3390  -52.6140 N.2       1 HQO        -0.0573
      6 O4         27.5440   14.9840  -51.6990 O.2       1 HQO        -0.1563
      7 C5         25.9890   14.4010  -53.2440 C.ar      1 HQO         0.1385
      8 C6         26.0070   13.0160  -52.8500 C.ar      1 HQO        -0.0172
      9 C7         25.1750   12.0740  -53.5100 C.ar      1 HQO        -0.0464
     10 C8         24.3120   12.4970  -54.5730 C.ar      1 HQO        -0.0479
     11 C9         24.2760   13.8540  -54.9770 C.ar      1 HQO        -0.0313
     12 C10        25.1060   14.8140  -54.3250 C.ar      1 HQO         0.0945
     13 C11        27.6270   17.6070  -52.3440 C.3       1 HQO         0.0689
     14 C12        29.9850   17.7090  -53.2420 C.3       1 HQO        -0.0475
     15 C13        28.5760   18.3220  -53.3330 C.3       1 HQO        -0.0207
     16 C14        30.9470   18.7290  -52.6560 C.3       1 HQO        -0.0526
     17 C15        32.1480   17.9680  -52.1110 C.3       1 HQO        -0.0533
     18 C16        33.3800   18.8790  -52.2700 C.3       1 HQO        -0.0559
     19 C17        34.4870   18.4300  -51.2950 C.3       1 HQO        -0.0653
     20 H1         25.9292   18.1532  -54.3517 H         1 HQO         0.1832
     21 H2         26.6583   12.6916  -52.0465 H         1 HQO         0.0730
     22 H3         25.1925   11.0327  -53.2093 H         1 HQO         0.0675
     23 H4         23.6806   11.7713  -55.0727 H         1 HQO         0.0697
     24 H5         23.6181   14.1631  -55.7812 H         1 HQO         0.0695
     25 H6         28.2307   17.0789  -51.5912 H         1 HQO         0.0784
     26 H7         26.9984   18.3606  -51.8471 H         1 HQO         0.0784
     27 H8         30.3247   17.4209  -54.2478 H         1 HQO         0.0270
     28 H9         29.9563   16.8193  -52.5958 H         1 HQO         0.0270
     29 H10        28.6266   19.3917  -53.0815 H         1 HQO         0.0333
     30 H11        28.1922   18.2038  -54.3571 H         1 HQO         0.0333
     31 H12        30.4555   19.2853  -51.8443 H         1 HQO         0.0265
     32 H13        31.2713   19.4314  -53.4379 H         1 HQO         0.0265
     33 H14        32.2928   17.0371  -52.6788 H         1 HQO         0.0265
     34 H15        31.9915   17.7290  -51.0487 H         1 HQO         0.0265
     35 H16        33.0972   19.9187  -52.0484 H         1 HQO         0.0263
     36 H17        33.7532   18.8126  -53.3026 H         1 HQO         0.0263
     37 H18        35.3648   19.0826  -51.4113 H         1 HQO         0.0230
     38 H19        34.7710   17.3906  -51.5162 H         1 HQO         0.0230
     39 H20        34.1150   18.4966  -50.2620 H         1 HQO         0.0230
@<TRIPOS>BOND
     1    1    2 2  
     2    1    3 1  
     3    1   12 1  
     4    3    4 2  
     5    4    5 1  
     6    4   13 1  
     7    5    6 2  
     8    5    7 1  
     9    7    8 ar 
    10    7   12 ar 
    11    8    9 ar 
    12    9   10 ar 
    13   10   11 ar 
    14   11   12 ar 
    15   13   15 1  
    16   15   14 1  
    17   14   16 1  
    18   16   17 1  
    19   17   18 1  
    20   18   19 1  
    21    3   20 1  
    22    8   21 1  
    23    9   22 1  
    24   10   23 1  
    25   11   24 1  
    26   13   25 1  
    27   13   26 1  
    28   14   27 1  
    29   14   28 1  
    30   15   29 1  
    31   15   30 1  
    32   16   31 1  
    33   16   32 1  
    34   17   33 1  
    35   17   34 1  
    36   18   35 1  
    37   18   36 1  
    38   19   37 1  
    39   19   38 1  
    40   19   39 1  
@<TRIPOS>SUBSTRUCTURE
     1 HQO         1

