### 
### Created by X-TOOL on Mon Sep 10 21:12:49 2018
### 

@<TRIPOS>MOLECULE
1kfy_ligand
   33    34     1     0     0
SMALL
GAST_HUCK


@<TRIPOS>ATOM
      1 N1         25.3350   14.7020  -52.6310 N.2       1 BRS         0.0677
      2 O2         25.4160   13.6360  -51.9960 O.2       1 BRS        -0.1497
      3 O3         24.4050   14.7850  -53.4360 O.2       1 BRS        -0.1497
      4 N4         26.6160   19.3300  -54.1660 N.2       1 BRS         0.0971
      5 O5         27.3360   20.3430  -54.1610 O.2       1 BRS        -0.1240
      6 O6         25.6620   19.3360  -54.9310 O.2       1 BRS        -0.1240
      7 C7         26.0690   16.9970  -53.2970 C.ar      1 BRS         0.1063
      8 C8         26.8970   18.1150  -53.2590 C.ar      1 BRS         0.2369
      9 C9         27.9910   18.1170  -52.3950 C.ar      1 BRS         0.1023
     10 C10        28.2620   17.0100  -51.5580 C.ar      1 BRS         0.1965
     11 C11        27.4520   15.8860  -51.5780 C.ar      1 BRS         0.3205
     12 C12        26.3150   15.8770  -52.4740 C.ar      1 BRS         0.2915
     13 O13        27.7670   14.8180  -50.7240 O.3       1 BRS        -0.2122
     14 C14        31.1630   16.3180  -52.4580 C.ar      1 BRS        -0.0022
     15 C15        30.7940   17.2530  -51.4560 C.ar      1 BRS         0.0617
     16 C16        31.6760   18.3560  -51.2570 C.ar      1 BRS        -0.0022
     17 C17        32.9040   18.4940  -52.0540 C.ar      1 BRS        -0.0081
     18 C18        33.2360   17.5080  -53.0570 C.ar      1 BRS         0.0845
     19 C19        32.3560   16.4480  -53.2330 C.ar      1 BRS        -0.0081
     20 CL20       34.7260   17.5660  -54.0890 Cl        1 BRS        -0.0274
     21 C21        29.4610   17.0260  -50.6320 C.3       1 BRS         0.1254
     22 C22        29.2310   18.1050  -49.5920 C.3       1 BRS        -0.0048
     23 H          25.2199   16.9862  -53.9708 H         1 BRS         0.1364
     24 H          28.6446   18.9813  -52.3643 H         1 BRS         0.0977
     25 H          28.5474   15.0315  -50.2263 H         1 BRS         0.3290
     26 H          30.5129   15.4705  -52.6428 H         1 BRS         0.0825
     27 H          31.4379   19.1027  -50.5081 H         1 BRS         0.0825
     28 H          33.5629   19.3387  -51.8885 H         1 BRS         0.0755
     29 H          32.5813   15.6966  -53.9811 H         1 BRS         0.0755
     30 H          29.5344   16.0544  -50.1215 H         1 BRS         0.1293
     31 H          28.2956   17.8993  -49.0510 H         1 BRS         0.0378
     32 H          29.1596   19.0838  -50.0887 H         1 BRS         0.0378
     33 H          30.0708   18.1146  -48.8817 H         1 BRS         0.0378
@<TRIPOS>BOND
     1    1    2 2  
     2    1    3 2  
     3   12    1 1  
     4    4    5 2  
     5    4    6 2  
     6    8    4 1  
     7    8    7 ar 
     8   12    7 ar 
     9    9    8 ar 
    10   10    9 ar 
    11   10   11 ar 
    12   21   10 1  
    13   11   12 ar 
    14   11   13 1  
    15   15   14 ar 
    16   14   19 ar 
    17   15   16 ar 
    18   15   21 1  
    19   16   17 ar 
    20   17   18 ar 
    21   18   19 ar 
    22   18   20 1  
    23   21   22 1  
    24    7   23 1  
    25    9   24 1  
    26   13   25 1  
    27   14   26 1  
    28   16   27 1  
    29   17   28 1  
    30   19   29 1  
    31   21   30 1  
    32   22   31 1  
    33   22   32 1  
    34   22   33 1  
@<TRIPOS>SUBSTRUCTURE
     1 BRS         1

