### 
### Created by X-TOOL on Mon Sep 10 21:12:49 2018
### 

@<TRIPOS>MOLECULE
1kkq_ligand
   81    84     1     0     0
SMALL
GAST_HUCK


@<TRIPOS>ATOM
      1 N          73.3010   29.3380   26.3950 N.pl3     1 471        -0.2981
      2 CA         72.7480   29.0630   27.7190 C.3       1 471         0.0716
      3 CB         73.8590   28.9180   28.7580 C.3       1 471         0.0018
      4 CG         75.1810   28.3010   28.3640 C.ar      1 471        -0.0514
      5 CD1        76.1160   29.0330   27.7400 C.ar      1 471        -0.0687
      6 CD2        75.4560   27.0130   28.6190 C.ar      1 471        -0.0687
      7 CE1        77.2910   28.4990   27.3750 C.ar      1 471        -0.0396
      8 CE2        76.6310   26.4790   28.2550 C.ar      1 471        -0.0396
      9 CZ         77.5640   27.2100   27.6250 C.ar      1 471         0.0842
     10 OH         78.7660   26.6740   27.2410 O.3       1 471        -0.3211
     11 C1A        72.9910   28.7860   25.1550 C.2       1 471         0.0369
     12 C1F        73.6520   29.1940   24.0740 C.2       1 471        -0.0174
     13 C1B        71.9440   27.7310   24.9480 C.3       1 471         0.0018
     14 C1H        75.3750   30.5410   22.7220 C.ar      1 471         0.0463
     15 C1I        74.7370   30.7140   21.5550 C.ar      1 471        -0.0172
     16 C1J        75.4150   31.0310   20.4420 C.ar      1 471        -0.0280
     17 C1K        76.7480   31.1860   20.4490 C.ar      1 471         0.0504
     18 C1N        77.5390   31.5450   19.2120 C.3       1 471         0.3783
     19 F1Q        76.7870   31.5670   18.0750 F         1 471        -0.2195
     20 F1P        78.0850   32.7870   19.3410 F         1 471        -0.2195
     21 F1O        78.5640   30.6760   18.9850 F         1 471        -0.2195
     22 C1L        77.3830   31.0100   21.6170 C.ar      1 471        -0.0280
     23 C1M        76.7070   30.6930   22.7320 C.ar      1 471        -0.0172
     24 C1G        74.7450   30.2120   23.9300 C.2       1 471         0.1193
     25 O1G        75.1210   30.8060   24.9390 O.2       1 471        -0.3997
     26 O3F        80.4760   25.6080   21.7450 O.3       1 471        -0.2356
     27 C3G        80.3680   24.2810   22.0700 C.2       1 471         0.1880
     28 N3H        80.2490   24.1640   23.4410 N.2       1 471        -0.3129
     29 C3C        80.2860   25.4400   23.9660 C.2       1 471         0.0156
     30 C3D        80.4280   26.3320   22.9070 C.2       1 471         0.1140
     31 C3E        80.5220   27.8390   22.9190 C.3       1 471        -0.0015
     32 C3I        80.3820   23.3000   21.1560 C.ar      1 471         0.0316
     33 C3N        80.2790   22.0010   21.4770 C.ar      1 471        -0.0496
     34 C3M        80.2990   21.0430   20.5370 C.ar      1 471        -0.0613
     35 C3L        80.4240   21.3730   19.2440 C.ar      1 471        -0.0620
     36 C3K        80.5270   22.6660   18.9030 C.ar      1 471        -0.0613
     37 C3J        80.5060   23.6090   19.8560 C.ar      1 471        -0.0496
     38 C3A        78.7840   26.0100   25.9790 C.3       1 471         0.0739
     39 C3B        80.1870   25.7310   25.4450 C.3       1 471         0.0012
     40 C4A        71.7930   30.1840   28.1210 C.3       1 471         0.0564
     41 N4B        70.3870   29.8840   27.8630 N.am      1 471        -0.2845
     42 C4C        69.6470   30.4980   26.9570 C.2       1 471         0.1758
     43 O4C        70.0640   31.3960   26.2270 O.2       1 471        -0.3971
     44 C4D        68.2010   30.0440   26.8410 C.3       1 471         0.0344
     45 C4E        67.9990   28.8270   25.9410 C.3       1 471        -0.0482
     46 H1         74.0392   30.0560   26.3758 H         1 471         0.1912
     47 H2         72.1860   28.1185   27.6751 H         1 471         0.0609
     48 H3         73.4524   28.3043   29.5754 H         1 471         0.0429
     49 H4         74.0785   29.9287   29.1325 H         1 471         0.0429
     50 H5         75.9180   30.0771   27.5264 H         1 471         0.0530
     51 H6         74.7207   26.3975   29.1246 H         1 471         0.0530
     52 H7         78.0276   29.1157   26.8728 H         1 471         0.0525
     53 H8         76.8313   25.4364   28.4739 H         1 471         0.0525
     54 H9         73.3513   28.7116   23.1451 H         1 471         0.0143
     55 H10        71.8954   27.4671   23.8812 H         1 471         0.0494
     56 H11        70.9667   28.1150   25.2756 H         1 471         0.0494
     57 H12        72.2025   26.8376   25.5353 H         1 471         0.0494
     58 H13        73.6603   30.5962   21.5108 H         1 471         0.0738
     59 H14        74.8724   31.1654   19.5132 H         1 471         0.0857
     60 H15        78.4599   31.1257   21.6611 H         1 471         0.0857
     61 H16        77.2495   30.5569   23.6606 H         1 471         0.0738
     62 H17        80.4613   28.2019   23.9556 H         1 471         0.0409
     63 H18        79.6931   28.2628   22.3331 H         1 471         0.0409
     64 H19        81.4800   28.1502   22.4771 H         1 471         0.0409
     65 H20        80.1774   21.7191   22.5188 H         1 471         0.0626
     66 H21        80.2139   20.0011   20.8240 H         1 471         0.0617
     67 H22        80.4417   20.6026   18.4816 H         1 471         0.0615
     68 H23        80.6268   22.9476   17.8610 H         1 471         0.0617
     69 H24        80.5916   24.6506   19.5682 H         1 471         0.0626
     70 H25        78.2548   26.6400   25.2489 H         1 471         0.0626
     71 H26        78.2571   25.0503   26.0853 H         1 471         0.0626
     72 H27        80.8095   26.6128   25.6571 H         1 471         0.0384
     73 H28        80.5866   24.8611   25.9868 H         1 471         0.0384
     74 H29        72.0634   31.0886   27.5566 H         1 471         0.0545
     75 H30        71.9148   30.3735   29.1977 H         1 471         0.0545
     76 H31        69.9556   29.1657   28.4088 H         1 471         0.1851
     77 H32        67.6092   30.8768   26.4334 H         1 471         0.0500
     78 H33        67.8360   29.7931   27.8479 H         1 471         0.0500
     79 H34        66.9309   28.5657   25.9120 H         1 471         0.0254
     80 H35        68.5736   27.9775   26.3386 H         1 471         0.0254
     81 H36        68.3469   29.0612   24.9241 H         1 471         0.0254
@<TRIPOS>BOND
     1    2    1 1  
     2    1   11 1  
     3    3    2 1  
     4    2   40 1  
     5    4    3 1  
     6    5    4 ar 
     7    6    4 ar 
     8    7    5 ar 
     9    8    6 ar 
    10    9    7 ar 
    11    9    8 ar 
    12   10    9 1  
    13   38   10 1  
    14   11   12 2  
    15   11   13 1  
    16   12   24 1  
    17   14   15 ar 
    18   14   23 ar 
    19   24   14 1  
    20   15   16 ar 
    21   16   17 ar 
    22   17   18 1  
    23   22   17 ar 
    24   18   19 1  
    25   18   20 1  
    26   18   21 1  
    27   23   22 ar 
    28   24   25 2  
    29   26   27 1  
    30   30   26 1  
    31   28   27 2  
    32   27   32 1  
    33   29   28 1  
    34   29   30 2  
    35   39   29 1  
    36   30   31 1  
    37   32   33 ar 
    38   32   37 ar 
    39   33   34 ar 
    40   34   35 ar 
    41   36   35 ar 
    42   37   36 ar 
    43   38   39 1  
    44   40   41 1  
    45   41   42 am 
    46   42   43 2  
    47   42   44 1  
    48   44   45 1  
    49    1   46 1  
    50    2   47 1  
    51    3   48 1  
    52    3   49 1  
    53    5   50 1  
    54    6   51 1  
    55    7   52 1  
    56    8   53 1  
    57   12   54 1  
    58   13   55 1  
    59   13   56 1  
    60   13   57 1  
    61   15   58 1  
    62   16   59 1  
    63   22   60 1  
    64   23   61 1  
    65   31   62 1  
    66   31   63 1  
    67   31   64 1  
    68   33   65 1  
    69   34   66 1  
    70   35   67 1  
    71   36   68 1  
    72   37   69 1  
    73   38   70 1  
    74   38   71 1  
    75   39   72 1  
    76   39   73 1  
    77   40   74 1  
    78   40   75 1  
    79   41   76 1  
    80   44   77 1  
    81   44   78 1  
    82   45   79 1  
    83   45   80 1  
    84   45   81 1  
@<TRIPOS>SUBSTRUCTURE
     1 471         1

