### 
### Created by X-TOOL on Mon Sep 10 21:12:49 2018
### 

@<TRIPOS>MOLECULE
1kl5_ligand
   82    84     1     0     0
SMALL
GAST_HUCK


@<TRIPOS>ATOM
      1 N          11.5330    0.3250   34.0670 N.4       1 SER         0.2396
      2 CA         11.5370    1.8240   34.1380 C.3       1 SER         0.0885
      3 C          12.7320    2.4260   33.3920 C.2       1 SER         0.2291
      4 O          13.8220    2.5500   33.9280 O.2       1 SER        -0.3906
      5 CB         11.6100    2.3360   35.5780 C.3       1 SER         0.1041
      6 OG         12.9430    2.1940   36.0450 O.3       1 SER        -0.3870
      7 N          12.5810    2.7670   32.1270 N.am      1 HIS        -0.2591
      8 CA         13.6590    3.4450   31.4150 C.3       1 HIS         0.1424
      9 C          13.5460    4.9750   31.4110 C.2       1 HIS         0.2085
     10 O          12.4530    5.5460   31.2940 O.2       1 HIS        -0.3940
     11 CB         13.5930    2.9100   30.0040 C.3       1 HIS         0.0427
     12 CG         14.7960    3.2450   29.1830 C.2       1 HIS         0.0561
     13 ND1        14.9630    4.4830   28.6020 N.pl3     1 HIS        -0.2623
     14 CD2        15.8710    2.4960   28.8330 C.2       1 HIS        -0.0276
     15 CE1        16.1070    4.4870   27.9450 C.2       1 HIS         0.0875
     16 NE2        16.6820    3.3000   28.0720 N.2       1 HIS        -0.3437
     17 N          14.6790    5.6720   31.5000 N.am      1 PRO        -0.2497
     18 CA         14.6570    7.1400   31.5420 C.3       1 PRO         0.1338
     19 C          14.0300    7.8020   30.3250 C.2       1 PRO         0.2041
     20 O          13.5740    8.9220   30.4820 O.2       1 PRO        -0.3944
     21 CB         16.1210    7.5520   31.5070 C.3       1 PRO        -0.0104
     22 CG         16.8870    6.3370   31.6880 C.3       1 PRO        -0.0281
     23 CD         16.0530    5.1360   31.5340 C.3       1 PRO         0.0369
     24 N          14.0150    7.2070   29.1430 N.am      1 GLN        -0.2636
     25 CA         13.3190    7.8620   28.0330 C.3       1 GLN         0.1330
     26 C          11.8200    8.0350   28.3270 C.2       1 GLN         0.2042
     27 O          11.1940    8.9550   27.7750 O.2       1 GLN        -0.3944
     28 CB         13.4280    7.0220   26.7540 C.3       1 GLN         0.0045
     29 CG         12.9670    7.7140   25.4960 C.3       1 GLN         0.0412
     30 CD         13.3060    6.8750   24.2520 C.2       1 GLN         0.1737
     31 OE1        12.6210    6.8810   23.2180 O.2       1 GLN        -0.3973
     32 NE2        14.3380    6.1310   24.3830 N.am      1 GLN        -0.3009
     33 N          11.2610    7.1800   29.1940 N.am      1 PHE        -0.2632
     34 CA          9.8290    7.2140   29.5000 C.3       1 PHE         0.1223
     35 C           9.5290    7.4700   30.9770 C.2       1 PHE         0.1265
     36 O           8.4290    7.1090   31.3880 O.2       1 PHE        -0.3723
     37 CB          9.1770    5.8920   29.0840 C.3       1 PHE         0.0201
     38 CG          9.6880    5.3960   27.7690 C.ar      1 PHE        -0.0385
     39 CD1         9.4040    6.1200   26.6290 C.ar      1 PHE        -0.0601
     40 CD2        10.4510    4.2450   27.6770 C.ar      1 PHE        -0.0601
     41 CE1         9.8760    5.6900   25.4070 C.ar      1 PHE        -0.0686
     42 CE2        10.9220    3.8150   26.4540 C.ar      1 PHE        -0.0686
     43 CZ         10.6400    4.5350   25.3100 C.ar      1 PHE        -0.0687
     44 H1         10.7346   -0.0329   34.5676 H         1 SER         0.2016
     45 H2         12.3785   -0.0334   34.4827 H         1 SER         0.2016
     46 H3         11.4831    0.0344   33.1031 H         1 SER         0.2016
     47 H4         10.6068    2.1876   33.6771 H         1 SER         0.1122
     48 H5         10.9306    1.7497   36.2141 H         1 SER         0.0640
     49 H6         11.3180    3.3961   35.6091 H         1 SER         0.0640
     50 H7         13.5267    2.7002   35.4922 H         1 SER         0.2099
     51 H8         11.7245    2.5601   31.6541 H         1 HIS         0.1886
     52 H9         14.6211    3.1742   31.8744 H         1 HIS         0.0824
     53 H10        12.7060    3.3350   29.5115 H         1 HIS         0.0491
     54 H11        13.4972    1.8152   30.0508 H         1 HIS         0.0491
     55 H12        14.3052    5.2727   28.6693 H         1 HIS         0.2386
     56 H13        16.0551    1.4573   29.1035 H         1 HIS         0.0324
     57 H14        16.5133    5.3300   27.3880 H         1 HIS         0.1149
     58 H15        14.1536    7.4833   32.4578 H         1 PRO         0.0802
     59 H16        16.3365    8.2630   32.3182 H         1 PRO         0.0313
     60 H17        16.3638    8.0152   30.5393 H         1 PRO         0.0313
     61 H18        17.3245    6.3392   32.6972 H         1 PRO         0.0287
     62 H19        17.6923    6.3092   30.9392 H         1 PRO         0.0287
     63 H20        16.2924    4.6085   30.5989 H         1 PRO         0.0524
     64 H21        16.1873    4.4525   32.3853 H         1 PRO         0.0524
     65 H22        14.4703    6.3266   29.0101 H         1 GLN         0.1883
     66 H23        13.7747    8.8491   27.8657 H         1 GLN         0.0801
     67 H24        12.8188    6.1159   26.8878 H         1 GLN         0.0337
     68 H25        14.4824    6.7386   26.6207 H         1 GLN         0.0337
     69 H26        13.4667    8.6909   25.4186 H         1 GLN         0.0504
     70 H27        11.8781    7.8619   25.5447 H         1 GLN         0.0504
     71 H28        14.6347    5.5497   23.6254 H         1 GLN         0.1814
     72 H29        14.8482    6.1306   25.2431 H         1 GLN         0.1814
     73 H30        11.8380    6.4991   29.6451 H         1 PHE         0.1886
     74 H31         9.3788    8.0295   28.9150 H         1 PHE         0.0814
     75 H32        10.2548    7.9489   31.6326 H         1 PHE         0.1375
     76 H33         8.0901    6.0425   29.0070 H         1 PHE         0.0475
     77 H34         9.3889    5.1354   29.8539 H         1 PHE         0.0475
     78 H35         8.8110    7.0251   26.6942 H         1 PHE         0.0557
     79 H36        10.6799    3.6777   28.5719 H         1 PHE         0.0557
     80 H37         9.6483    6.2594   24.5132 H         1 PHE         0.0599
     81 H38        11.5149    2.9097   26.3908 H         1 PHE         0.0599
     82 H39        11.0109    4.2022   24.3473 H         1 PHE         0.0559
@<TRIPOS>BOND
     1    1    2 1  
     2    2    3 1  
     3    2    5 1  
     4    3    4 2  
     5    3    7 am 
     6    5    6 1  
     7    7    8 1  
     8    8    9 1  
     9    8   11 1  
    10    9   10 2  
    11    9   17 am 
    12   11   12 1  
    13   12   13 1  
    14   12   14 2  
    15   13   15 1  
    16   14   16 1  
    17   15   16 2  
    18   17   18 1  
    19   17   23 1  
    20   18   19 1  
    21   18   21 1  
    22   19   20 2  
    23   19   24 am 
    24   21   22 1  
    25   22   23 1  
    26   24   25 1  
    27   25   26 1  
    28   25   28 1  
    29   26   27 2  
    30   26   33 am 
    31   28   29 1  
    32   29   30 1  
    33   30   31 2  
    34   30   32 am 
    35   33   34 1  
    36   34   35 1  
    37   34   37 1  
    38   35   36 2  
    39   37   38 1  
    40   38   39 ar 
    41   38   40 ar 
    42   39   41 ar 
    43   40   42 ar 
    44   41   43 ar 
    45   42   43 ar 
    46    1   44 1  
    47    1   45 1  
    48    1   46 1  
    49    2   47 1  
    50    5   48 1  
    51    5   49 1  
    52    6   50 1  
    53    7   51 1  
    54    8   52 1  
    55   11   53 1  
    56   11   54 1  
    57   13   55 1  
    58   14   56 1  
    59   15   57 1  
    60   18   58 1  
    61   21   59 1  
    62   21   60 1  
    63   22   61 1  
    64   22   62 1  
    65   23   63 1  
    66   23   64 1  
    67   24   65 1  
    68   25   66 1  
    69   28   67 1  
    70   28   68 1  
    71   29   69 1  
    72   29   70 1  
    73   32   71 1  
    74   32   72 1  
    75   33   73 1  
    76   34   74 1  
    77   35   75 1  
    78   37   76 1  
    79   37   77 1  
    80   39   78 1  
    81   40   79 1  
    82   41   80 1  
    83   42   81 1  
    84   43   82 1  
@<TRIPOS>SUBSTRUCTURE
     1 SER         1

