### 
### Created by X-TOOL on Mon Sep 10 21:12:48 2018
### 

@<TRIPOS>MOLECULE
1kll_ligand
   41    43     1     0     0
SMALL
GAST_HUCK


@<TRIPOS>ATOM
      1 H1         12.1079   31.3851   18.1524 H         1 MC          0.0396
      2 H2         13.1291   32.8239   18.4894 H         1 MC          0.0396
      3 H3         11.8683   32.8966   17.2119 H         1 MC          0.0396
      4 H4         12.3433   35.0656   18.1480 H         1 MC          0.1701
      5 H5         11.3879   36.2715   19.0512 H         1 MC          0.1701
      6 H6         11.1475   30.5415   19.1021 H         1 MC          0.2591
      7 H7          9.0281   35.9946   21.3089 H         1 MC          0.2698
      8 H8          7.0479   35.5269   21.7750 H         1 MC          0.0841
      9 H9          8.2440   35.5447   23.1151 H         1 MC          0.0841
     10 H10         4.5806   36.0050   25.5611 H         1 MC          0.1831
     11 H11         4.7870   34.3421   25.1227 H         1 MC          0.1831
     12 H12         7.0716   31.5677   24.1843 H         1 MC          0.0972
     13 H13         7.3012   29.6251   23.6573 H         1 MC          0.1341
     14 H14         8.5135   29.2698   21.2845 H         1 MC          0.1685
     15 H15         6.3450   28.3666   22.1652 H         1 MC          0.2037
     16 H16         5.4812   29.6322   21.5639 H         1 MC          0.2037
     17 H17         5.2882   29.1758   23.1336 H         1 MC          0.2037
     18 H18         5.2297   31.4405   22.1646 H         1 MC          0.2156
     19 C51         9.3750   32.3500   20.8730 C.ar      1 MC          0.0678
     20 C5         10.3590   31.9110   19.9160 C.ar      1 MC          0.1252
     21 C6         11.1160   32.9600   19.2210 C.ar      1 MC          0.0379
     22 C7         10.9290   34.2670   19.4800 C.ar      1 MC          0.1114
     23 C8          9.8820   34.6750   20.4680 C.ar      1 MC          0.1599
     24 C81         9.1580   33.6230   21.1020 C.ar      1 MC          0.0550
     25 C9          8.0540   33.7160   22.1050 C.2       1 MC          0.0471
     26 C91         7.7680   32.4700   22.3680 C.2       1 MC          0.0915
     27 C11        12.1240   32.4840   18.1990 C.3       1 MC         -0.0243
     28 N4          8.5130   31.5980   21.6250 N.2       1 MC         -0.2879
     29 N7         11.6120   35.2890   18.8380 N.pl3     1 MC         -0.3344
     30 O5         10.4740   30.7080   19.7510 O.3       1 MC         -0.3181
     31 O8          9.7160   35.8730   20.6650 O.3       1 MC         -0.3010
     32 C10         7.4800   34.9430   22.6010 C.3       1 MC          0.1246
     33 O10         6.3950   34.5180   23.5750 O.3       1 MC         -0.2457
     34 C12         5.9940   35.6560   24.1290 C.2       1 MC          0.3198
     35 O13         6.1110   36.8420   23.8840 O.2       1 MC         -0.3775
     36 N14         5.0380   35.3040   25.0140 N.am      1 MC         -0.2762
     37 C1          6.7940   31.4740   23.1240 C.3       1 MC          0.1829
     38 C2          6.9260   30.1080   22.7430 C.3       1 MC          0.0999
     39 C3          8.0720   30.1320   21.7820 C.2       1 MC          0.1000
     40 N1          5.9500   29.2690   22.3790 N.4       1 MC          0.2548
     41 O0          5.5180   31.6190   23.0520 O.3       1 MC         -0.3613
@<TRIPOS>BOND
     1   27    1 1  
     2   27    2 1  
     3   27    3 1  
     4   29    4 1  
     5   29    5 1  
     6   30    6 1  
     7   31    7 1  
     8   32    8 1  
     9   32    9 1  
    10   36   10 1  
    11   36   11 1  
    12   37   12 1  
    13   38   13 1  
    14   39   14 1  
    15   40   15 1  
    16   40   16 1  
    17   40   17 1  
    18   41   18 1  
    19   28   19 1  
    20   24   19 ar 
    21   19   20 ar 
    22   20   30 1  
    23   20   21 ar 
    24   21   27 1  
    25   22   21 ar 
    26   22   29 1  
    27   23   22 ar 
    28   23   31 1  
    29   24   23 ar 
    30   25   24 1  
    31   32   25 1  
    32   25   26 2  
    33   26   37 1  
    34   26   28 1  
    35   28   39 2  
    36   39   38 1  
    37   38   40 1  
    38   37   38 1  
    39   37   41 1  
    40   33   32 1  
    41   34   33 1  
    42   34   36 am 
    43   34   35 2  
@<TRIPOS>SUBSTRUCTURE
     1 MC          1

