### 
### Created by X-TOOL on Mon Sep 10 21:12:48 2018
### 

@<TRIPOS>MOLECULE
1kmv_ligand
   44    46     1     0     0
SMALL
GAST_HUCK


@<TRIPOS>ATOM
      1 C4A        13.7320   24.1770   32.2440 C.ar      1 LII         0.0773
      2 C4         15.0590   24.2740   31.7180 C.ar      1 LII         0.1386
      3 C2         14.6820   22.5230   30.2630 C.ar      1 LII         0.1631
      4 C8A        12.8780   23.3290   31.5750 C.ar      1 LII         0.0881
      5 C5         13.1900   24.9470   33.3790 C.ar      1 LII        -0.0001
      6 C6         11.8790   24.9590   33.5350 C.ar      1 LII         0.0042
      7 C7         11.0050   23.9870   32.7670 C.ar      1 LII         0.0074
      8 C5A        14.0540   25.6400   34.3650 C.3       1 LII        -0.0171
      9 C9         11.0920   25.9000   34.4630 C.2       1 LII        -0.0612
     10 C1'         9.6990   24.1260   35.8350 C.ar      1 LII        -0.0066
     11 C2'        10.5750   23.1020   36.1780 C.ar      1 LII         0.0899
     12 C3'        10.0870   21.8830   36.5780 C.ar      1 LII        -0.0393
     13 C4'         8.7060   21.6770   36.6270 C.ar      1 LII        -0.0415
     14 C5'         7.8140   22.6790   36.2890 C.ar      1 LII         0.0788
     15 C6'         8.3300   23.8990   35.8950 C.ar      1 LII        -0.0357
     16 C10        10.1650   25.5060   35.3870 C.2       1 LII        -0.0666
     17 C2A'       12.6970   22.2420   36.0020 C.3       1 LII         0.0585
     18 C5A'        5.6270   23.6940   36.2150 C.3       1 LII         0.0569
     19 N3         15.5040   23.4370   30.7740 N.ar      1 LII        -0.2370
     20 N1         13.3990   22.4420   30.6080 N.ar      1 LII        -0.2747
     21 N8         11.5550   23.2240   31.8130 N.ar      1 LII        -0.2969
     22 N4         15.9540   25.1520   32.1230 N.pl3     1 LII        -0.3064
     23 N16        15.1430   21.6620   29.3730 N.pl3     1 LII        -0.3055
     24 O2'        11.9030   23.4250   36.0890 O.3       1 LII        -0.3246
     25 O5'         6.4510   22.5660   36.3120 O.3       1 LII        -0.3286
     26 H1          9.9464   23.9102   32.9874 H         1 LII         0.0867
     27 H2         15.1084   25.5238   34.0741 H         1 LII         0.0457
     28 H3         13.8981   25.2011   35.3615 H         1 LII         0.0457
     29 H4         13.7964   26.7091   34.3908 H         1 LII         0.0457
     30 H5         11.2895   26.9675   34.3768 H         1 LII         0.0562
     31 H6         10.7681   21.0860   36.8538 H         1 LII         0.0515
     32 H7          8.3250   20.7106   36.9367 H         1 LII         0.0517
     33 H8          7.6494   24.6987   35.6261 H         1 LII         0.0496
     34 H9          9.6680   26.3300   35.8969 H         1 LII         0.0547
     35 H10        13.7595   22.5179   35.9312 H         1 LII         0.0577
     36 H11        12.4064   21.6702   35.1084 H         1 LII         0.0577
     37 H12        12.5371   21.6262   36.8994 H         1 LII         0.0577
     38 H13         4.5728   23.3823   36.2536 H         1 LII         0.0573
     39 H14         5.8222   24.2100   35.2633 H         1 LII         0.0573
     40 H15         5.8386   24.3758   37.0519 H         1 LII         0.0573
     41 H16        16.8923   25.1642   31.6984 H         1 LII         0.1887
     42 H17        15.7154   25.8262   32.8643 H         1 LII         0.1887
     43 H18        16.1312   21.6985   29.0850 H         1 LII         0.1845
     44 H19        14.5141   20.9543   28.9673 H         1 LII         0.1845
@<TRIPOS>BOND
     1    1    2 ar 
     2    1    4 ar 
     3    5    1 ar 
     4    2   19 ar 
     5    2   22 1  
     6   19    3 ar 
     7   20    3 ar 
     8    3   23 1  
     9    4   20 ar 
    10   21    4 ar 
    11    6    5 ar 
    12    5    8 1  
    13    6    7 ar 
    14    9    6 1  
    15    7   21 ar 
    16   16    9 2  
    17   10   11 ar 
    18   10   15 ar 
    19   10   16 1  
    20   11   12 ar 
    21   11   24 1  
    22   12   13 ar 
    23   13   14 ar 
    24   14   15 ar 
    25   14   25 1  
    26   24   17 1  
    27   25   18 1  
    28    7   26 1  
    29    8   27 1  
    30    8   28 1  
    31    8   29 1  
    32    9   30 1  
    33   12   31 1  
    34   13   32 1  
    35   15   33 1  
    36   16   34 1  
    37   17   35 1  
    38   17   36 1  
    39   17   37 1  
    40   18   38 1  
    41   18   39 1  
    42   18   40 1  
    43   22   41 1  
    44   22   42 1  
    45   23   43 1  
    46   23   44 1  
@<TRIPOS>SUBSTRUCTURE
     1 LII         1

