### 
### Created by X-TOOL on Mon Sep 10 21:12:48 2018
### 

@<TRIPOS>MOLECULE
1kmy_ligand
   24    25     1     0     0
SMALL
GAST_HUCK


@<TRIPOS>ATOM
      1 CK1        20.6190  -23.1650   72.4330 C.ar      1 BPY        -0.0728
      2 CK2        21.9080  -22.6340   72.3610 C.ar      1 BPY         0.0042
      3 CK3        22.1060  -21.3260   71.9030 C.ar      1 BPY         0.1265
      4 CK4        21.0270  -20.5520   71.5300 C.ar      1 BPY         0.1178
      5 CK5        19.7160  -21.0890   71.6030 C.ar      1 BPY        -0.0410
      6 CK6        19.5270  -22.3910   72.0500 C.ar      1 BPY        -0.0805
      7 CK7        23.1120  -23.4150   72.7760 C.ar      1 BPY        -0.0245
      8 CK8        23.4660  -23.4570   74.1180 C.ar      1 BPY        -0.0572
      9 CK9        24.5830  -24.1590   74.5260 C.ar      1 BPY        -0.0632
     10 CK10       25.3420  -24.8330   73.5970 C.ar      1 BPY        -0.0635
     11 CK11       24.9890  -24.7950   72.2610 C.ar      1 BPY        -0.0632
     12 CK12       23.8690  -24.0940   71.8510 C.ar      1 BPY        -0.0572
     13 OK1        21.2510  -19.2520   71.0840 O.3       1 BPY        -0.3369
     14 OK2        23.3830  -20.7990   71.8250 O.3       1 BPY        -0.3343
     15 H1         20.4685  -24.1786   72.7866 H         1 BPY         0.0502
     16 H2         18.8642  -20.4854   71.3109 H         1 BPY         0.0514
     17 H3         18.5265  -22.8052   72.1006 H         1 BPY         0.0500
     18 H4         22.8612  -22.9350   74.8507 H         1 BPY         0.0606
     19 H5         24.8607  -24.1790   75.5736 H         1 BPY         0.0613
     20 H6         26.2151  -25.3927   73.9122 H         1 BPY         0.0603
     21 H7         25.5941  -25.3182   71.5294 H         1 BPY         0.0613
     22 H8         23.5893  -24.0802   70.8038 H         1 BPY         0.0606
     23 H9         20.9277  -19.1632   70.1952 H         1 BPY         0.2441
     24 H10        23.4420  -20.0312   72.3813 H         1 BPY         0.2459
@<TRIPOS>BOND
     1    1    2 ar 
     2    1    6 ar 
     3    2    3 ar 
     4    2    7 1  
     5    3    4 ar 
     6    3   14 1  
     7    4    5 ar 
     8    4   13 1  
     9    5    6 ar 
    10    7    8 ar 
    11    7   12 ar 
    12    8    9 ar 
    13    9   10 ar 
    14   10   11 ar 
    15   11   12 ar 
    16    1   15 1  
    17    5   16 1  
    18    6   17 1  
    19    8   18 1  
    20    9   19 1  
    21   10   20 1  
    22   11   21 1  
    23   12   22 1  
    24   13   23 1  
    25   14   24 1  
@<TRIPOS>SUBSTRUCTURE
     1 BPY         1

