### 
### Created by X-TOOL on Mon Sep 10 21:12:49 2018
### 

@<TRIPOS>MOLECULE
1kpm_ligand
   77    78     1     0     0
SMALL
GAST_HUCK


@<TRIPOS>ATOM
      1 C1          6.4100   15.4090   39.0000 C.3       1 VIT        -0.0492
      2 C2         15.6250   22.8830   46.6720 C.ar      1 VIT        -0.0359
      3 C3         15.2380   22.6240   45.3140 C.ar      1 VIT        -0.0327
      4 C4         16.1790   22.1020   44.3810 C.ar      1 VIT         0.0714
      5 C5         17.5320   21.8290   44.7840 C.ar      1 VIT        -0.0359
      6 C6         17.9320   22.0880   46.1540 C.ar      1 VIT        -0.0362
      7 C7         16.9750   22.6150   47.0900 C.ar      1 VIT         0.0669
      8 C8         14.6190   23.3940   47.6800 C.3       1 VIT        -0.0426
      9 O1         15.7370   21.8570   43.0440 O.3       1 VIT        -0.3297
     10 C9         14.8120   22.7590   42.2560 C.3       1 VIT         0.0846
     11 C10        13.7770   22.8900   44.7740 C.3       1 VIT        -0.0276
     12 C11        13.5950   23.2010   43.2290 C.3       1 VIT        -0.0145
     13 C12        18.4970   21.3400   43.7060 C.3       1 VIT        -0.0426
     14 C13        19.3070   21.7440   46.3150 C.3       1 VIT        -0.0426
     15 O2         17.2020   22.8260   48.4770 O.3       1 VIT        -0.3512
     16 C14        14.8550   23.9000   41.2740 C.3       1 VIT        -0.0321
     17 C15        13.6530   21.3680   42.0150 C.3       1 VIT        -0.0203
     18 C16        12.5960   19.8320   41.2430 C.3       1 VIT        -0.0498
     19 C17        12.5480   18.9170   39.5940 C.3       1 VIT        -0.0488
     20 C18        11.1700   19.1320   38.4550 C.3       1 VIT        -0.0372
     21 C19         9.9120   19.9660   38.5420 C.3       1 VIT        -0.0608
     22 C20        10.7310   17.6220   38.5650 C.3       1 VIT        -0.0334
     23 C21         9.5110   16.9300   38.6600 C.2       1 VIT        -0.0962
     24 C22         9.0100   15.7420   38.1530 C.2       1 VIT        -0.0882
     25 C23         7.4820   15.2990   37.9070 C.3       1 VIT        -0.0114
     26 C24         7.3990   13.7670   37.6660 C.2       1 VIT        -0.0882
     27 C25         5.9430   13.2970   37.4420 C.2       1 VIT        -0.0962
     28 C26         5.9220   11.8050   37.2250 C.3       1 VIT        -0.0336
     29 C27         4.4690   11.3050   36.9960 C.3       1 VIT        -0.0400
     30 C28         3.8600   11.9620   35.7320 C.3       1 VIT        -0.0611
     31 C29         4.4680    9.7770   36.8000 C.3       1 VIT        -0.0611
     32 H1          5.4473   15.0506   38.6067 H         1 VIT         0.0271
     33 H2          6.3106   16.4592   39.3118 H         1 VIT         0.0271
     34 H3          6.7038   14.7960   39.8648 H         1 VIT         0.0271
     35 H4         13.6473   23.5413   47.1859 H         1 VIT         0.0338
     36 H5         14.9686   24.3512   48.0941 H         1 VIT         0.0338
     37 H6         14.5096   22.6610   48.4928 H         1 VIT         0.0338
     38 H7         13.3753   23.7502   45.3295 H         1 VIT         0.0374
     39 H8         13.1778   21.9956   44.9996 H         1 VIT         0.0374
     40 H9         12.6880   22.6806   42.8877 H         1 VIT         0.0313
     41 H10        13.4575   24.2869   43.1204 H         1 VIT         0.0313
     42 H11        17.9552   21.2194   42.7563 H         1 VIT         0.0338
     43 H12        18.9258   20.3733   44.0088 H         1 VIT         0.0338
     44 H13        19.3050   22.0751   43.5764 H         1 VIT         0.0338
     45 H14        19.6146   21.9389   47.3530 H         1 VIT         0.0338
     46 H15        19.9192   22.3503   45.6312 H         1 VIT         0.0338
     47 H16        19.4475   20.6775   46.0851 H         1 VIT         0.0338
     48 H17        18.1090   22.6311   48.6815 H         1 VIT         0.2392
     49 H18        15.6557   23.7228   40.5408 H         1 VIT         0.0261
     50 H19        15.0516   24.8393   41.8116 H         1 VIT         0.0261
     51 H20        13.8893   23.9713   40.7522 H         1 VIT         0.0261
     52 H21        14.0280   20.7925   42.8741 H         1 VIT         0.0296
     53 H22        12.7646   21.9416   42.3176 H         1 VIT         0.0296
     54 H23        12.7935   19.0217   41.9602 H         1 VIT         0.0266
     55 H24        11.5574   20.1763   41.3556 H         1 VIT         0.0266
     56 H25        13.4555   19.2113   39.0464 H         1 VIT         0.0269
     57 H26        12.5941   17.8437   39.8303 H         1 VIT         0.0269
     58 H27        11.5994   19.3764   37.4722 H         1 VIT         0.0318
     59 H28         9.3136   19.8232   37.6301 H         1 VIT         0.0234
     60 H29        10.1820   21.0277   38.6408 H         1 VIT         0.0234
     61 H30         9.3250   19.6539   39.4183 H         1 VIT         0.0234
     62 H31        11.1901   17.1745   37.6712 H         1 VIT         0.0393
     63 H32        11.2685   17.2822   39.4625 H         1 VIT         0.0393
     64 H33         8.7857   17.4534   39.2812 H         1 VIT         0.0458
     65 H34         9.7590   14.9997   37.8813 H         1 VIT         0.0465
     66 H35         7.1375   15.8573   37.0240 H         1 VIT         0.0543
     67 H36         8.2625   13.1035   37.6560 H         1 VIT         0.0465
     68 H37         5.0672   13.9442   37.4411 H         1 VIT         0.0458
     69 H38         6.3407   11.3051   38.1109 H         1 VIT         0.0393
     70 H39         6.5317   11.5595   36.3430 H         1 VIT         0.0393
     71 H40         3.8568   11.5637   37.8725 H         1 VIT         0.0315
     72 H41         2.8329   11.5959   35.5872 H         1 VIT         0.0234
     73 H42         4.4692   11.7018   34.8538 H         1 VIT         0.0234
     74 H43         3.8454   13.0547   35.8575 H         1 VIT         0.0234
     75 H44         4.8978    9.2930   37.6894 H         1 VIT         0.0234
     76 H45         5.0701    9.5203   35.9159 H         1 VIT         0.0234
     77 H46         3.4355    9.4266   36.6548 H         1 VIT         0.0234
@<TRIPOS>BOND
     1    1   25 1  
     2   25   26 1  
     3   25   24 1  
     4   24   23 2  
     5   23   22 1  
     6   22   20 1  
     7   20   21 1  
     8   20   19 1  
     9   19   18 1  
    10   18   17 1  
    11   17   10 1  
    12   10   16 1  
    13   10   12 1  
    14   10    9 1  
    15    9    4 1  
    16    4    5 ar 
    17    4    3 ar 
    18    3   11 1  
    19    3    2 ar 
    20    2    8 1  
    21    2    7 ar 
    22    7   15 1  
    23    7    6 ar 
    24    6   14 1  
    25    6    5 ar 
    26    5   13 1  
    27   11   12 1  
    28   26   27 2  
    29   27   28 1  
    30   28   29 1  
    31   29   31 1  
    32   29   30 1  
    33    1   32 1  
    34    1   33 1  
    35    1   34 1  
    36    8   35 1  
    37    8   36 1  
    38    8   37 1  
    39   11   38 1  
    40   11   39 1  
    41   12   40 1  
    42   12   41 1  
    43   13   42 1  
    44   13   43 1  
    45   13   44 1  
    46   14   45 1  
    47   14   46 1  
    48   14   47 1  
    49   15   48 1  
    50   16   49 1  
    51   16   50 1  
    52   16   51 1  
    53   17   52 1  
    54   17   53 1  
    55   18   54 1  
    56   18   55 1  
    57   19   56 1  
    58   19   57 1  
    59   20   58 1  
    60   21   59 1  
    61   21   60 1  
    62   21   61 1  
    63   22   62 1  
    64   22   63 1  
    65   23   64 1  
    66   24   65 1  
    67   25   66 1  
    68   26   67 1  
    69   27   68 1  
    70   28   69 1  
    71   28   70 1  
    72   29   71 1  
    73   30   72 1  
    74   30   73 1  
    75   30   74 1  
    76   31   75 1  
    77   31   76 1  
    78   31   77 1  
@<TRIPOS>SUBSTRUCTURE
     1 VIT         1

