### 
### Created by X-TOOL on Mon Sep 10 21:12:49 2018
### 

@<TRIPOS>MOLECULE
1kqb_ligand
   14    14     1     0     0
SMALL
GAST_HUCK


@<TRIPOS>ATOM
      1 C           3.8440   -3.2680   29.7880 C.2       1 BEZ         0.0629
      2 O1          4.1070   -2.7040   30.9010 O.co2     1 BEZ        -0.5606
      3 O2          2.9950   -2.7840   28.9940 O.co2     1 BEZ        -0.5606
      4 C1          4.5940   -4.5200   29.4380 C.ar      1 BEZ         0.0102
      5 C2          5.3500   -5.2480   30.3960 C.ar      1 BEZ        -0.0476
      6 C3          6.0400   -6.4160   30.0240 C.ar      1 BEZ        -0.0582
      7 C4          5.9910   -6.8700   28.7060 C.ar      1 BEZ        -0.0592
      8 C5          5.2570   -6.1760   27.7300 C.ar      1 BEZ        -0.0582
      9 C6          4.5610   -5.0130   28.0800 C.ar      1 BEZ        -0.0476
     10 H1          5.3953   -4.9004   31.4218 H         1 BEZ         0.0651
     11 H2          6.6115   -6.9649   30.7638 H         1 BEZ         0.0624
     12 H3          6.5270   -7.7712   28.4310 H         1 BEZ         0.0638
     13 H4          5.2296   -6.5398   26.7092 H         1 BEZ         0.0624
     14 H5          3.9933   -4.4784   27.3270 H         1 BEZ         0.0651
@<TRIPOS>BOND
     1    1    2 ar 
     2    1    3 ar 
     3    1    4 1  
     4    4    5 ar 
     5    4    9 ar 
     6    5    6 ar 
     7    6    7 ar 
     8    7    8 ar 
     9    8    9 ar 
    10    5   10 1  
    11    6   11 1  
    12    7   12 1  
    13    8   13 1  
    14    9   14 1  
@<TRIPOS>SUBSTRUCTURE
     1 BEZ         1

