### 
### Created by X-TOOL on Sun Sep  9 21:50:03 2018
### 

@<TRIPOS>MOLECULE
1kr3_ligand
   36    38     1     0     0
SMALL
GAST_HUCK


@<TRIPOS>ATOM
      1 C1          3.6180   12.1470   -2.0490 C.ar      1 NON         0.1204
      2 C2          4.0840   12.7090   -0.8590 C.ar      1 NON         0.0040
      3 C3          3.1940   12.9160    0.1900 C.ar      1 NON         0.1282
      4 C4          1.8870   12.3680    0.1490 C.ar      1 NON         0.0511
      5 C5          1.4110   11.7910   -1.0620 C.ar      1 NON         0.0410
      6 C6          2.3160   11.6410   -2.1520 C.ar      1 NON         0.1279
      7 O8          3.6110   13.6760    1.2590 O.3       1 NON        -0.2489
      8 C9          2.8880   13.7170    2.4330 C.2       1 NON         0.1233
      9 C10         1.6030   13.2910    2.5100 C.2       1 NON         0.0694
     10 C11         1.0680   12.4600    1.3770 C.2       1 NON         0.1032
     11 C12         3.6230   14.2910    3.6200 C.3       1 NON         0.0453
     12 C13         2.6360   15.1120    4.4620 C.3       1 NON         0.0750
     13 O14         1.4870   14.3110    4.7670 O.3       1 NON        -0.3410
     14 C15         0.7350   13.6760    3.7100 C.3       1 NON         0.1798
     15 O16         1.9980   11.0210   -3.3550 O.3       1 NON        -0.3374
     16 O17         4.4170   12.0800   -3.1790 O.3       1 NON        -0.3343
     17 C18        -0.0040   11.3640   -1.2350 C.2       1 NON         0.0561
     18 O19        -0.2030   10.0300   -1.3040 O.co2     1 NON        -0.5640
     19 O20        -0.4170   14.4440    3.3350 O.3       1 NON        -0.3498
     20 C22        -1.5000   14.6200    4.2260 C.3       1 NON         0.0408
     21 C26         3.2370   15.6230    5.7750 C.3       1 NON        -0.0360
     22 O30        -0.9240   12.1510   -1.2970 O.co2     1 NON        -0.5640
     23 O31        -0.0030   11.9180    1.5190 O.2       1 NON        -0.4271
     24 H1          5.1280   12.9811   -0.7536 H         1 NON         0.0488
     25 H2          4.4400   14.9396    3.2709 H         1 NON         0.0522
     26 H3          4.0379   13.4740    4.2286 H         1 NON         0.0522
     27 H4          2.3197   15.9811    3.8665 H         1 NON         0.0625
     28 H5          0.3544   12.7320    4.1271 H         1 NON         0.0969
     29 H6          1.7463   10.1201   -3.1888 H         1 NON         0.2435
     30 H7          4.5178   11.1723   -3.4408 H         1 NON         0.2463
     31 H8         -2.2739   15.2364    3.7452 H         1 NON         0.0526
     32 H9         -1.1462   15.1218    5.1387 H         1 NON         0.0526
     33 H10        -1.9229   13.6388    4.4875 H         1 NON         0.0526
     34 H11         2.4791   16.2000    6.3251 H         1 NON         0.0257
     35 H12         4.1011   16.2676    5.5564 H         1 NON         0.0257
     36 H13         3.5623   14.7684    6.3865 H         1 NON         0.0257
@<TRIPOS>BOND
     1    1    2 ar 
     2    1    6 ar 
     3    1   16 1  
     4    2    3 ar 
     5    3    4 ar 
     6    3    7 1  
     7    4    5 ar 
     8    4   10 1  
     9    5    6 ar 
    10    5   17 1  
    11    6   15 1  
    12    7    8 1  
    13    8    9 2  
    14    8   11 1  
    15    9   10 1  
    16    9   14 1  
    17   10   23 2  
    18   11   12 1  
    19   12   13 1  
    20   12   21 1  
    21   13   14 1  
    22   14   19 1  
    23   17   18 ar 
    24   17   22 ar 
    25   19   20 1  
    26    2   24 1  
    27   11   25 1  
    28   11   26 1  
    29   12   27 1  
    30   14   28 1  
    31   15   29 1  
    32   16   30 1  
    33   20   31 1  
    34   20   32 1  
    35   20   33 1  
    36   21   34 1  
    37   21   35 1  
    38   21   36 1  
@<TRIPOS>SUBSTRUCTURE
     1 NON         1

