### 
### Created by X-TOOL on Mon Sep 10 21:12:49 2018
### 

@<TRIPOS>MOLECULE
1kti_ligand
   34    34     1     0     0
SMALL
GAST_HUCK


@<TRIPOS>ATOM
      1 C1         33.4160   22.8210   27.8210 C.3       1 AZC         0.1725
      2 C2         33.7160   23.0440   26.3300 C.3       1 AZC         0.1306
      3 O2         33.8450   24.4240   26.0560 O.3       1 AZC        -0.3844
      4 C3         32.6040   22.4320   25.4650 C.3       1 AZC         0.1138
      5 O3         32.9470   22.5150   24.0980 O.3       1 AZC        -0.3864
      6 C4         32.3730   20.9670   25.8430 C.3       1 AZC         0.1119
      7 O4         31.2540   20.4710   25.1430 O.3       1 AZC        -0.3865
      8 C5         32.1520   20.8170   27.3540 C.3       1 AZC         0.1127
      9 O5         33.2490   21.4160   28.0610 O.3       1 AZC        -0.3438
     10 C6         32.0780   19.3360   27.7240 C.3       1 AZC         0.0730
     11 O6         33.2250   18.6610   27.2630 O.3       1 AZC        -0.3924
     12 N1         34.5040   23.3140   28.6550 N.am      1 AZC        -0.2396
     13 C7         34.2360   23.8900   29.8270 C.2       1 AZC         0.2896
     14 O7         33.0670   24.0450   30.1890 O.2       1 AZC        -0.3915
     15 N2         35.2460   24.3260   30.5900 N.am      1 AZC        -0.1855
     16 C8         36.5280   24.1600   30.2510 C.2       1 AZC         0.2013
     17 C9         37.5490   24.3450   31.3640 C.3       1 AZC         0.0307
     18 O8         36.8910   23.8660   29.1140 O.2       1 AZC        -0.3872
     19 H1         32.4898   23.3523   28.0851 H         1 AZC         0.0893
     20 H2         34.6660   22.5467   26.0847 H         1 AZC         0.0668
     21 H3         34.0300   24.5464   25.1322 H         1 AZC         0.2101
     22 H4         31.6742   22.9946   25.6351 H         1 AZC         0.0647
     23 H5         33.0630   23.4264   23.8566 H         1 AZC         0.2100
     24 H6         33.2609   20.3839   25.5574 H         1 AZC         0.0647
     25 H7         30.4867   20.9822   25.3718 H         1 AZC         0.2100
     26 H8         31.2131   21.3150   27.6377 H         1 AZC         0.0647
     27 H9         31.1844   18.8905   27.2625 H         1 AZC         0.0584
     28 H10        32.0137   19.2376   28.8177 H         1 AZC         0.0584
     29 H11        33.9978   19.0433   27.6619 H         1 AZC         0.2095
     30 H12        35.4513   23.2204   28.3485 H         1 AZC         0.1879
     31 H13        35.0327   24.7944   31.4474 H         1 AZC         0.2254
     32 H14        38.5608   24.1836   30.9639 H         1 AZC         0.0471
     33 H15        37.3520   23.6191   32.1667 H         1 AZC         0.0471
     34 H16        37.4723   25.3660   31.7660 H         1 AZC         0.0471
@<TRIPOS>BOND
     1    1    2 1  
     2    1    9 1  
     3    1   12 1  
     4    2    3 1  
     5    2    4 1  
     6    4    5 1  
     7    4    6 1  
     8    6    7 1  
     9    6    8 1  
    10    8    9 1  
    11    8   10 1  
    12   10   11 1  
    13   12   13 am 
    14   13   14 2  
    15   13   15 am 
    16   15   16 am 
    17   16   17 1  
    18   16   18 2  
    19    1   19 1  
    20    2   20 1  
    21    3   21 1  
    22    4   22 1  
    23    5   23 1  
    24    6   24 1  
    25    7   25 1  
    26    8   26 1  
    27   10   27 1  
    28   10   28 1  
    29   11   29 1  
    30   12   30 1  
    31   15   31 1  
    32   17   32 1  
    33   17   33 1  
    34   17   34 1  
@<TRIPOS>SUBSTRUCTURE
     1 AZC         1

