### 
### Created by X-TOOL on Mon Sep 10 21:12:49 2018
### 

@<TRIPOS>MOLECULE
1ktt_ligand
   52    55     1     0     0
SMALL
GAST_HUCK


@<TRIPOS>ATOM
      1 N1         10.5800  -10.5680   24.5650 N.pl3     1 C02        -0.2728
      2 C2         10.8260  -11.5850   23.7070 C.cat     1 C02         0.2320
      3 N3          9.9610  -12.6250   23.6480 N.pl3     1 C02        -0.2728
      4 C4         12.0260  -11.5830   22.8940 C.ar      1 C02         0.0193
      5 C5         12.8560  -10.4630   22.8750 C.ar      1 C02        -0.0627
      6 C6         14.0230  -10.4530   22.1090 C.ar      1 C02        -0.0573
      7 C7         14.3710  -11.5740   21.3480 C.ar      1 C02        -0.0230
      8 C8         13.5360  -12.6990   21.3620 C.ar      1 C02        -0.0573
      9 C9         12.3660  -12.7030   22.1330 C.ar      1 C02        -0.0627
     10 C10        15.6440  -11.5630   20.5380 C.3       1 C02         0.0620
     11 C11        16.6320  -12.5900   21.0740 C.2       1 C02         0.1303
     12 N12        16.3080  -13.6130   21.8710 N.2       1 C02        -0.3223
     13 C13        17.4150  -14.3100   22.1470 C.ar      1 C02         0.0047
     14 C14        18.4710  -13.6880   21.4910 C.ar      1 C02         0.0666
     15 N15        17.9620  -12.6300   20.8380 N.pl3     1 C02        -0.2417
     16 C16        18.7180  -11.6760   20.0070 C.3       1 C02         0.0439
     17 C17        19.7580  -14.2200   21.6130 C.ar      1 C02        -0.0533
     18 C18        19.9860  -15.3780   22.3920 C.ar      1 C02        -0.0569
     19 C19        18.9250  -15.9900   23.0380 C.ar      1 C02         0.0452
     20 C20        17.6360  -15.4450   22.9100 C.ar      1 C02        -0.0519
     21 N21        19.1080  -17.0040   23.9640 N.am      1 C02        -0.1950
     22 S22        19.4730  -16.7620   25.6550 S.o2      1 C02         0.0874
     23 C23        20.6620  -15.5090   25.7670 C.ar      1 C02         0.1136
     24 C24        21.9330  -15.7250   25.2280 C.ar      1 C02        -0.0346
     25 C25        22.9010  -14.7190   25.2980 C.ar      1 C02        -0.0599
     26 C26        22.5950  -13.5020   25.9050 C.ar      1 C02        -0.0616
     27 C27        21.3240  -13.2870   26.4430 C.ar      1 C02        -0.0599
     28 C28        20.3580  -14.2910   26.3720 C.ar      1 C02        -0.0346
     29 O29        18.2750  -16.3900   26.3610 O.2       1 C02        -0.1451
     30 O30        20.0010  -17.9430   26.2710 O.2       1 C02        -0.1451
     31 H1          9.7256  -10.5747   25.1402 H         1 C02         0.3180
     32 H2         11.2471   -9.7871   24.6429 H         1 C02         0.3180
     33 H3         10.1372  -13.4052   22.9990 H         1 C02         0.3180
     34 H4          9.1268  -12.6360   24.2521 H         1 C02         0.3180
     35 H5         12.5923   -9.5903   23.4615 H         1 C02         0.0600
     36 H6         14.6600   -9.5759   22.1039 H         1 C02         0.0563
     37 H7         13.7965  -13.5710   20.7732 H         1 C02         0.0563
     38 H8         11.7242  -13.5766   22.1386 H         1 C02         0.0600
     39 H9         16.0980  -10.5626   20.5925 H         1 C02         0.0687
     40 H10        15.4076  -11.8019   19.4906 H         1 C02         0.0687
     41 H11        18.0314  -10.9175   19.6029 H         1 C02         0.0562
     42 H12        19.1995  -12.2140   19.1771 H         1 C02         0.0562
     43 H13        19.4872  -11.1845   20.6207 H         1 C02         0.0562
     44 H14        20.5880  -13.7410   21.1063 H         1 C02         0.0513
     45 H15        20.9867  -15.7847   22.4830 H         1 C02         0.0426
     46 H16        16.8027  -15.9195   23.4155 H         1 C02         0.0367
     47 H17        19.0248  -17.9463   23.6397 H         1 C02         0.2119
     48 H18        22.1681  -16.6720   24.7559 H         1 C02         0.0637
     49 H19        23.8878  -14.8849   24.8811 H         1 C02         0.0618
     50 H20        23.3448  -12.7210   25.9596 H         1 C02         0.0618
     51 H21        21.0883  -12.3403   26.9155 H         1 C02         0.0618
     52 H22        19.3709  -14.1237   26.7875 H         1 C02         0.0637
@<TRIPOS>BOND
     1    2    1 ar 
     2    2    4 1  
     3    2    3 ar 
     4    4    9 ar 
     5    4    5 ar 
     6    5    6 ar 
     7    6    7 ar 
     8    7   10 1  
     9    7    8 ar 
    10    8    9 ar 
    11   10   11 1  
    12   11   15 1  
    13   11   12 2  
    14   12   13 1  
    15   13   20 ar 
    16   13   14 ar 
    17   14   17 ar 
    18   14   15 1  
    19   15   16 1  
    20   17   18 ar 
    21   18   19 ar 
    22   19   21 1  
    23   19   20 ar 
    24   21   22 am 
    25   22   30 2  
    26   22   29 2  
    27   22   23 1  
    28   23   28 ar 
    29   23   24 ar 
    30   24   25 ar 
    31   25   26 ar 
    32   26   27 ar 
    33   27   28 ar 
    34    1   31 1  
    35    1   32 1  
    36    3   33 1  
    37    3   34 1  
    38    5   35 1  
    39    6   36 1  
    40    8   37 1  
    41    9   38 1  
    42   10   39 1  
    43   10   40 1  
    44   16   41 1  
    45   16   42 1  
    46   16   43 1  
    47   17   44 1  
    48   18   45 1  
    49   20   46 1  
    50   21   47 1  
    51   24   48 1  
    52   25   49 1  
    53   26   50 1  
    54   27   51 1  
    55   28   52 1  
@<TRIPOS>SUBSTRUCTURE
     1 C02         1

