### 
### Created by X-TOOL on Mon Sep 10 21:12:48 2018
### 

@<TRIPOS>MOLECULE
1kug_ligand
   53    55     1     0     0
SMALL
GAST_HUCK


@<TRIPOS>ATOM
      1 N          14.7340    9.7220    3.5610 N.am      1 PCA        -0.2655
      2 CA         14.5310    9.7960    5.0170 C.3       1 PCA         0.1330
      3 C          13.0330    9.8100    5.2580 C.2       1 PCA         0.2042
      4 O          12.2950   10.5840    4.6390 O.2       1 PCA        -0.3944
      5 CB         15.1570   11.0830    5.5440 C.3       1 PCA         0.0045
      6 CG         15.5720   11.8090    4.3110 C.3       1 PCA         0.0416
      7 CD         15.2400   10.8890    3.1720 C.2       1 PCA         0.1784
      8 OE1        15.4200   11.1820    1.9940 O.2       1 PCA        -0.3969
      9 N          12.5690    8.9570    6.1580 N.am      1 ASN        -0.2616
     10 CA         11.1470    8.8960    6.4520 C.3       1 ASN         0.1475
     11 C          10.8900    9.6840    7.7290 C.2       1 ASN         0.2058
     12 O          11.6330    9.5580    8.6920 O.2       1 ASN        -0.3942
     13 CB         10.6990    7.4480    6.7070 C.3       1 ASN         0.0773
     14 CG         10.3820    6.6900    5.4250 C.2       1 ASN         0.1780
     15 OD1         9.5140    7.0940    4.6430 O.2       1 ASN        -0.3970
     16 ND2        11.0820    5.5780    5.2100 N.am      1 ASN        -0.3007
     17 N           9.8480   10.5060    7.7090 N.am      1 TRP        -0.2683
     18 CA          9.4280   11.2720    8.8820 C.3       1 TRP         0.0986
     19 C           7.9450   11.5410    8.7920 C.2       1 TRP         0.0613
     20 O           7.3180   11.9290    9.7860 O.co2     1 TRP        -0.5665
     21 CB         10.1990   12.5860    9.0170 C.3       1 TRP        -0.0013
     22 CG          9.8990   13.7170    8.0130 C.2       1 TRP        -0.0424
     23 CD1         9.2560   13.6470    6.8000 C.2       1 TRP         0.0166
     24 CD2        10.2400   15.0840    8.2040 C.ar      1 TRP        -0.0214
     25 NE1         9.1800   14.9050    6.2250 N.pl3     1 TRP        -0.2891
     26 CE2         9.7730   15.8100    7.0650 C.ar      1 TRP         0.0603
     27 CE3        10.8860   15.7750    9.2180 C.ar      1 TRP        -0.0747
     28 CZ2         9.9360   17.1980    6.9360 C.ar      1 TRP        -0.0443
     29 CZ3        11.0630   17.1550    9.0990 C.ar      1 TRP        -0.0792
     30 CH2        10.5910   17.8570    7.9710 C.ar      1 TRP        -0.0768
     31 OXT         7.3740   11.3840    7.6910 O.co2     1 TRP        -0.5665
     32 H1         14.5294    8.9393    2.9732 H         1 PCA         0.1883
     33 H2         14.9886    8.9275    5.5133 H         1 PCA         0.0801
     34 H3         16.0268   10.8634    6.1805 H         1 PCA         0.0337
     35 H4         14.4231   11.6700    6.1157 H         1 PCA         0.0337
     36 H5         16.6516   12.0187    4.3334 H         1 PCA         0.0505
     37 H6         15.0168   12.7539    4.2161 H         1 PCA         0.0505
     38 H7         13.2017    8.3502    6.6391 H         1 ASN         0.1885
     39 H8         10.5757    9.3231    5.6147 H         1 ASN         0.0826
     40 H9          9.7969    7.4656    7.3362 H         1 ASN         0.0551
     41 H10        11.5053    6.9195    7.2367 H         1 ASN         0.0551
     42 H11        10.9193    5.0364    4.3853 H         1 ASN         0.1814
     43 H12        11.7704    5.2844    5.8733 H         1 ASN         0.1814
     44 H13         9.3302   10.6054    6.8593 H         1 TRP         0.1877
     45 H14         9.6233   10.6667    9.7794 H         1 TRP         0.0741
     46 H15        11.2688   12.3464    8.9272 H         1 TRP         0.0390
     47 H16         9.9949   12.9813   10.0230 H         1 TRP         0.0390
     48 H17         8.8629   12.7340    6.3551 H         1 TRP         0.0795
     49 H18         8.7486   15.1238    5.3156 H         1 TRP         0.2216
     50 H19        11.2497   15.2495   10.0936 H         1 TRP         0.0540
     51 H20         9.5677   17.7328    6.0680 H         1 TRP         0.0541
     52 H21        11.5724   17.6963    9.8880 H         1 TRP         0.0510
     53 H22        10.7412   18.9288    7.9094 H         1 TRP         0.0530
@<TRIPOS>BOND
     1    3    2 1  
     2    2    5 1  
     3    2    1 1  
     4    5    6 1  
     5    6    7 1  
     6    7    8 2  
     7    3    4 2  
     8   11   10 1  
     9   10   13 1  
    10   10    9 1  
    11   13   14 1  
    12   14   15 2  
    13   14   16 am 
    14   11   12 2  
    15   18   19 1  
    16   18   21 1  
    17   17   18 1  
    18   21   22 1  
    19   22   24 1  
    20   22   23 2  
    21   23   25 1  
    22   25   26 1  
    23   26   28 ar 
    24   24   26 ar 
    25   24   27 ar 
    26   27   29 ar 
    27   29   30 ar 
    28   28   30 ar 
    29   19   31 ar 
    30   19   20 ar 
    31    9    3 am 
    32   11   17 am 
    33    7    1 am 
    34    1   32 1  
    35    2   33 1  
    36    5   34 1  
    37    5   35 1  
    38    6   36 1  
    39    6   37 1  
    40    9   38 1  
    41   10   39 1  
    42   13   40 1  
    43   13   41 1  
    44   16   42 1  
    45   16   43 1  
    46   17   44 1  
    47   18   45 1  
    48   21   46 1  
    49   21   47 1  
    50   23   48 1  
    51   25   49 1  
    52   27   50 1  
    53   28   51 1  
    54   29   52 1  
    55   30   53 1  
@<TRIPOS>SUBSTRUCTURE
     1 PCA         1

