### 
### Created by X-TOOL on Mon Sep 10 21:12:49 2018
### 

@<TRIPOS>MOLECULE
1kui_ligand
   56    58     1     0     0
SMALL
GAST_HUCK


@<TRIPOS>ATOM
      1 N          14.4190    8.8560    3.4020 N.am      1 PCA        -0.2655
      2 CA         14.1520    9.0600    4.8420 C.3       1 PCA         0.1329
      3 C          12.6460    9.0430    5.1030 C.2       1 PCA         0.2040
      4 O          11.8800    9.7360    4.4280 O.2       1 PCA        -0.3944
      5 CB         14.7590   10.4020    5.2550 C.3       1 PCA         0.0045
      6 CG         15.1420   11.0440    3.9910 C.3       1 PCA         0.0416
      7 CD         14.8330   10.0340    2.9230 C.2       1 PCA         0.1784
      8 OE1        14.9360   10.2910    1.7250 O.2       1 PCA        -0.3969
      9 N          12.2230    8.2400    6.0760 N.am      1 GLN        -0.2636
     10 CA         10.8100    8.1190    6.4210 C.3       1 GLN         0.1330
     11 C          10.5230    8.7760    7.7650 C.2       1 GLN         0.2036
     12 O          11.2560    8.5700    8.7340 O.2       1 GLN        -0.3944
     13 CB         10.4010    6.6440    6.4680 C.3       1 GLN         0.0045
     14 CG         10.1810    6.0250    5.0920 C.3       1 GLN         0.0412
     15 CD          9.8380    4.5470    5.1580 C.2       1 GLN         0.1737
     16 OE1         9.1980    4.0870    6.0970 O.2       1 GLN        -0.3973
     17 NE2        10.2540    3.8010    4.1510 N.am      1 GLN        -0.3009
     18 N           9.4560    9.5660    7.8140 N.am      1 TRP        -0.2684
     19 CA          9.0720   10.2640    9.0330 C.3       1 TRP         0.0986
     20 C           7.5750   10.5150    9.0310 C.2       1 TRP         0.0613
     21 O           7.0060   10.7110   10.1200 O.co2     1 TRP        -0.5665
     22 CB          9.8450   11.5890    9.1470 C.3       1 TRP        -0.0013
     23 CG          9.4780   12.6590    8.1430 C.2       1 TRP        -0.0424
     24 CD1         8.8150   12.4940    6.9570 C.2       1 TRP         0.0166
     25 CD2         9.8070   14.0520    8.2220 C.ar      1 TRP        -0.0214
     26 NE1         8.7140   13.6950    6.2950 N.pl3     1 TRP        -0.2891
     27 CE2         9.3160   14.6680    7.0490 C.ar      1 TRP         0.0603
     28 CE3        10.4730   14.8390    9.1700 C.ar      1 TRP        -0.0747
     29 CZ2         9.4700   16.0380    6.8000 C.ar      1 TRP        -0.0443
     30 CZ3        10.6270   16.2010    8.9200 C.ar      1 TRP        -0.0792
     31 CH2        10.1270   16.7840    7.7440 C.ar      1 TRP        -0.0768
     32 OXT         6.9930   10.5190    7.9300 O.co2     1 TRP        -0.5665
     33 H1         14.3113    8.0051    2.8878 H         1 PCA         0.1883
     34 H2         14.6246    8.2528    5.4208 H         1 PCA         0.0801
     35 H3         15.6407   10.2483    5.8945 H         1 PCA         0.0337
     36 H4         14.0188   11.0136    5.7917 H         1 PCA         0.0337
     37 H5         16.2147   11.2873    3.9921 H         1 PCA         0.0505
     38 H6         14.5578   11.9625    3.8330 H         1 PCA         0.0505
     39 H7         12.8941    7.7027    6.5868 H         1 GLN         0.1883
     40 H8         10.2158    8.6267    5.6470 H         1 GLN         0.0801
     41 H9          9.4649    6.5612    7.0397 H         1 GLN         0.0337
     42 H10        11.1945    6.0797    6.9798 H         1 GLN         0.0337
     43 H11        11.1010    6.1459    4.5013 H         1 GLN         0.0504
     44 H12         9.3546    6.5554    4.5963 H         1 GLN         0.0504
     45 H13        10.0573    2.8206    4.1404 H         1 GLN         0.1814
     46 H14        10.7658    4.2164    3.3990 H         1 GLN         0.1814
     47 H15         8.9010    9.6847    6.9907 H         1 TRP         0.1876
     48 H16         9.3236    9.6334    9.8985 H         1 TRP         0.0741
     49 H17        10.9152   11.3659    9.0250 H         1 TRP         0.0390
     50 H18         9.6677   11.9966   10.1532 H         1 TRP         0.0390
     51 H19         8.4233   11.5465    6.5899 H         1 TRP         0.0795
     52 H20         8.2601   13.8396    5.3818 H         1 TRP         0.2216
     53 H21        10.8611   14.3970   10.0805 H         1 TRP         0.0540
     54 H22         9.0839   16.4915    5.8943 H         1 TRP         0.0541
     55 H23        11.1413   16.8211    9.6452 H         1 TRP         0.0510
     56 H24        10.2636   17.8467    7.5793 H         1 TRP         0.0530
@<TRIPOS>BOND
     1    3    2 1  
     2    2    5 1  
     3    2    1 1  
     4    5    6 1  
     5    6    7 1  
     6    7    8 2  
     7    3    4 2  
     8   11   10 1  
     9   10   13 1  
    10   10    9 1  
    11   13   14 1  
    12   14   15 1  
    13   15   16 2  
    14   15   17 am 
    15   11   12 2  
    16   19   20 1  
    17   19   22 1  
    18   18   19 1  
    19   22   23 1  
    20   23   25 1  
    21   23   24 2  
    22   24   26 1  
    23   26   27 1  
    24   27   29 ar 
    25   25   27 ar 
    26   25   28 ar 
    27   28   30 ar 
    28   30   31 ar 
    29   29   31 ar 
    30   20   32 ar 
    31   20   21 ar 
    32    9    3 am 
    33   11   18 am 
    34    7    1 am 
    35    1   33 1  
    36    2   34 1  
    37    5   35 1  
    38    5   36 1  
    39    6   37 1  
    40    6   38 1  
    41    9   39 1  
    42   10   40 1  
    43   13   41 1  
    44   13   42 1  
    45   14   43 1  
    46   14   44 1  
    47   17   45 1  
    48   17   46 1  
    49   18   47 1  
    50   19   48 1  
    51   22   49 1  
    52   22   50 1  
    53   24   51 1  
    54   26   52 1  
    55   28   53 1  
    56   29   54 1  
    57   30   55 1  
    58   31   56 1  
@<TRIPOS>SUBSTRUCTURE
     1 PCA         1

