### 
### Created by X-TOOL on Mon Sep 10 21:12:49 2018
### 

@<TRIPOS>MOLECULE
1kuk_ligand
   61    63     1     0     0
SMALL
GAST_HUCK


@<TRIPOS>ATOM
      1 N          14.4660    8.9470    3.5740 N.am      1 PCA        -0.2655
      2 CA         14.2340    9.1570    5.0140 C.3       1 PCA         0.1329
      3 C          12.7310    9.1110    5.1970 C.2       1 PCA         0.2040
      4 O          12.0110    9.8100    4.4960 O.2       1 PCA        -0.3944
      5 CB         14.7620   10.5400    5.3750 C.3       1 PCA         0.0045
      6 CG         14.9680   11.2060    4.0720 C.3       1 PCA         0.0416
      7 CD         14.8050   10.1240    3.0490 C.2       1 PCA         0.1784
      8 OE1        14.9810   10.3060    1.8320 O.2       1 PCA        -0.3969
      9 N          12.2500    8.3040    6.1380 N.am      1 LYS        -0.2637
     10 CA         10.8270    8.2100    6.3910 C.3       1 LYS         0.1309
     11 C          10.5100    8.9110    7.6950 C.2       1 LYS         0.2034
     12 O          11.1900    8.7320    8.7000 O.2       1 LYS        -0.3944
     13 CB         10.3460    6.7390    6.4710 C.3       1 LYS        -0.0122
     14 CG         10.4510    5.9290    5.1680 C.3       1 LYS        -0.0440
     15 CD          9.7910    4.5470    5.3530 C.3       1 LYS        -0.0124
     16 CE         10.0040    3.6890    4.0930 C.3       1 LYS        -0.0354
     17 NZ         11.4620    3.6570    3.7520 N.4       1 LYS         0.2185
     18 N           9.4740    9.7370    7.6780 N.am      1 TRP        -0.2684
     19 CA          9.0230   10.4400    8.9000 C.3       1 TRP         0.0986
     20 C           7.4940   10.6660    8.9110 C.2       1 TRP         0.0613
     21 O           6.9190   11.0100    9.9430 O.co2     1 TRP        -0.5665
     22 CB          9.7590   11.7870    9.0590 C.3       1 TRP        -0.0013
     23 CG          9.4310   12.9170    8.0850 C.2       1 TRP        -0.0424
     24 CD1         8.7080   12.8480    6.9260 C.2       1 TRP         0.0166
     25 CD2         9.8540   14.2760    8.2150 C.ar      1 TRP        -0.0214
     26 NE1         8.6610   14.0940    6.3280 N.pl3     1 TRP        -0.2891
     27 CE2         9.3550   14.9850    7.1000 C.ar      1 TRP         0.0603
     28 CE3        10.6100   14.9630    9.1780 C.ar      1 TRP        -0.0747
     29 CZ2         9.5750   16.3620    6.9200 C.ar      1 TRP        -0.0443
     30 CZ3        10.8380   16.3310    9.0130 C.ar      1 TRP        -0.0792
     31 CH2        10.3180   17.0270    7.8890 C.ar      1 TRP        -0.0768
     32 OXT         6.8580   10.5450    7.8220 O.co2     1 TRP        -0.5665
     33 H1         14.3841    8.0806    3.0814 H         1 PCA         0.1883
     34 H2         14.7294    8.3834    5.6190 H         1 PCA         0.0801
     35 H3         15.7104   10.4628    5.9269 H         1 PCA         0.0337
     36 H4         14.0282   11.0907    5.9819 H         1 PCA         0.0337
     37 H5         15.9768   11.6411    4.0161 H         1 PCA         0.0505
     38 H6         14.2187   11.9968    3.9200 H         1 PCA         0.0505
     39 H7         12.8825    7.7517    6.6811 H         1 LYS         0.1883
     40 H8         10.2904    8.7104    5.5715 H         1 LYS         0.0800
     41 H9          9.2904    6.7454    6.7803 H         1 LYS         0.0312
     42 H10        10.9491    6.2277    7.2357 H         1 LYS         0.0312
     43 H11        11.5110    5.7946    4.9067 H         1 LYS         0.0269
     44 H12         9.9399    6.4717    4.3592 H         1 LYS         0.0269
     45 H13         8.7127    4.6785    5.5261 H         1 LYS         0.0317
     46 H14        10.2424    4.0407    6.2190 H         1 LYS         0.0317
     47 H15         9.4406    4.1233    3.2540 H         1 LYS         0.0813
     48 H16         9.6491    2.6652    4.2821 H         1 LYS         0.0813
     49 H17        11.6018    3.0952    2.9269 H         1 LYS         0.1994
     50 H18        11.9783    3.2590    4.5209 H         1 LYS         0.1994
     51 H19        11.7872    4.5952    3.5787 H         1 LYS         0.1994
     52 H20         8.9851    9.8891    6.8190 H         1 TRP         0.1876
     53 H21         9.2767    9.8073    9.7633 H         1 TRP         0.0741
     54 H22        10.8357   11.5814    8.9669 H         1 TRP         0.0390
     55 H23         9.5418   12.1580   10.0715 H         1 TRP         0.0390
     56 H24         8.2396   11.9469    6.5330 H         1 TRP         0.0795
     57 H25         8.1810   14.3155    5.4440 H         1 TRP         0.2216
     58 H26        11.0113   14.4389   10.0379 H         1 TRP         0.0540
     59 H27         9.1798   16.8860    6.0573 H         1 TRP         0.0541
     60 H28        11.4197   16.8691    9.7527 H         1 TRP         0.0510
     61 H29        10.5028   18.0901    7.7855 H         1 TRP         0.0530
@<TRIPOS>BOND
     1    3    2 1  
     2    2    5 1  
     3    2    1 1  
     4    5    6 1  
     5    6    7 1  
     6    7    8 2  
     7    3    4 2  
     8   11   10 1  
     9   10   13 1  
    10   10    9 1  
    11   13   14 1  
    12   14   15 1  
    13   15   16 1  
    14   16   17 1  
    15   11   12 2  
    16   19   20 1  
    17   19   22 1  
    18   18   19 1  
    19   22   23 1  
    20   23   25 1  
    21   23   24 2  
    22   24   26 1  
    23   26   27 1  
    24   27   29 ar 
    25   25   27 ar 
    26   25   28 ar 
    27   28   30 ar 
    28   30   31 ar 
    29   29   31 ar 
    30   20   32 ar 
    31   20   21 ar 
    32    9    3 am 
    33   11   18 am 
    34    7    1 am 
    35    1   33 1  
    36    2   34 1  
    37    5   35 1  
    38    5   36 1  
    39    6   37 1  
    40    6   38 1  
    41    9   39 1  
    42   10   40 1  
    43   13   41 1  
    44   13   42 1  
    45   14   43 1  
    46   14   44 1  
    47   15   45 1  
    48   15   46 1  
    49   16   47 1  
    50   16   48 1  
    51   17   49 1  
    52   17   50 1  
    53   17   51 1  
    54   18   52 1  
    55   19   53 1  
    56   22   54 1  
    57   22   55 1  
    58   24   56 1  
    59   26   57 1  
    60   28   58 1  
    61   29   59 1  
    62   30   60 1  
    63   31   61 1  
@<TRIPOS>SUBSTRUCTURE
     1 PCA         1

