### 
### Created by X-TOOL on Mon Sep 10 21:12:49 2018
### 

@<TRIPOS>MOLECULE
1kv1_ligand
   40    41     1     0     0
SMALL
GAST_HUCK


@<TRIPOS>ATOM
      1 C1         33.3350   33.7310   14.7430 C.2       1 BMU         0.3229
      2 O1         32.6010   34.5460   15.3330 O.2       1 BMU        -0.3788
      3 N2         34.5710   33.5060   15.1830 N.am      1 BMU        -0.2133
      4 C3         35.1480   34.1290   16.2090 C.ar      1 BMU         0.0677
      5 C4         36.4480   34.4790   16.0740 C.ar      1 BMU        -0.0407
      6 C5         37.1140   35.1040   17.1080 C.ar      1 BMU        -0.0617
      7 C6         36.4760   35.3630   18.2450 C.ar      1 BMU         0.0238
      8 C7         35.1700   35.0230   18.4040 C.ar      1 BMU        -0.0617
      9 C8         34.4900   34.3920   17.3610 C.ar      1 BMU        -0.0407
     10 N9         32.9130   33.0390   13.6810 N.am      1 BMU        -0.1819
     11 C10        31.7140   33.1640   13.1110 C.2       1 BMU         0.2023
     12 C14        31.0350   34.3170   12.8600 C.2       1 BMU        -0.0215
     13 C13        29.8770   33.9530   12.1980 C.2       1 BMU         0.0006
     14 N12        29.8450   32.6300   12.0430 N.2       1 BMU        -0.1752
     15 N11        31.0160   32.1480   12.6350 N.pl3     1 BMU        -0.1522
     16 C15        31.4020   30.7330   12.7230 C.3       1 BMU         0.0718
     17 C17        28.3360   35.6290   12.9670 C.3       1 BMU        -0.0827
     18 C18        27.7110   33.9850   11.1740 C.3       1 BMU        -0.0827
     19 C19        29.4050   35.7600   10.6900 C.3       1 BMU        -0.0827
     20 C16        28.8780   34.8070   11.7780 C.3       1 BMU        -0.0412
     21 CL6        37.3570   36.1330   19.5340 Cl        1 BMU        -0.0850
     22 H1         35.1100   32.8129   14.7043 H         1 BMU         0.2266
     23 H2         36.9695   34.2670   15.1476 H         1 BMU         0.0502
     24 H3         38.1551   35.3832   16.9935 H         1 BMU         0.0583
     25 H4         34.6594   35.2405   19.3351 H         1 BMU         0.0583
     26 H5         33.4477   34.1162   17.4729 H         1 BMU         0.0502
     27 H6         33.5459   32.3753   13.2823 H         1 BMU         0.2336
     28 H7         31.3431   35.3266   13.1278 H         1 BMU         0.0214
     29 H8         30.6317   30.1122   12.2421 H         1 BMU         0.0621
     30 H9         31.4983   30.4442   13.7800 H         1 BMU         0.0621
     31 H10        32.3649   30.5832   12.2127 H         1 BMU         0.0621
     32 H11        27.5416   36.3034   12.6147 H         1 BMU         0.0142
     33 H12        29.1524   36.2217   13.4055 H         1 BMU         0.0142
     34 H13        27.9277   34.9477   13.7280 H         1 BMU         0.0142
     35 H14        28.0811   33.3927   10.3242 H         1 BMU         0.0142
     36 H15        26.9215   34.6685   10.8283 H         1 BMU         0.0142
     37 H16        27.3023   33.3104   11.9407 H         1 BMU         0.0142
     38 H17        30.2360   36.3558   11.0956 H         1 BMU         0.0142
     39 H18        28.5957   36.4315   10.3674 H         1 BMU         0.0142
     40 H19        29.7600   35.1738    9.8296 H         1 BMU         0.0142
@<TRIPOS>BOND
     1    1   10 am 
     2    1    3 am 
     3    1    2 2  
     4    3    4 1  
     5    4    9 ar 
     6    4    5 ar 
     7    5    6 ar 
     8    6    7 ar 
     9    7    8 ar 
    10    8    9 ar 
    11   10   11 1  
    12   11   15 1  
    13   11   12 2  
    14   12   13 1  
    15   13   20 1  
    16   13   14 2  
    17   14   15 1  
    18   15   16 1  
    19   20   17 1  
    20   20   18 1  
    21   20   19 1  
    22    7   21 1  
    23    3   22 1  
    24    5   23 1  
    25    6   24 1  
    26    8   25 1  
    27    9   26 1  
    28   10   27 1  
    29   12   28 1  
    30   16   29 1  
    31   16   30 1  
    32   16   31 1  
    33   17   32 1  
    34   17   33 1  
    35   17   34 1  
    36   18   35 1  
    37   18   36 1  
    38   18   37 1  
    39   19   38 1  
    40   19   39 1  
    41   19   40 1  
@<TRIPOS>SUBSTRUCTURE
     1 BMU         1

