### 
### Created by X-TOOL on Mon Sep 10 21:12:49 2018
### 

@<TRIPOS>MOLECULE
1kv2_ligand
   77    81     1     0     0
SMALL
GAST_HUCK


@<TRIPOS>ATOM
      1 C1         32.8500   33.9990   15.3520 C.2       1 B96         0.3230
      2 O1         31.9630   34.5370   16.0310 O.2       1 B96        -0.3787
      3 N2         34.0770   33.8920   15.8400 N.am      1 B96        -0.2165
      4 C3         34.4030   34.4490   16.9930 C.ar      1 B96         0.0681
      5 C4         35.4970   35.2570   16.9940 C.ar      1 B96         0.0044
      6 C5         35.9010   35.8800   18.1430 C.ar      1 B96         0.0053
      7 C6         35.1810   35.6970   19.2810 C.ar      1 B96         0.0840
      8 C31        36.2220   35.4440   15.8200 C.ar      1 B96        -0.0590
      9 C32        37.3710   36.2710   15.8060 C.ar      1 B96        -0.0670
     10 C33        37.7830   36.8970   16.9510 C.ar      1 B96        -0.0672
     11 C34        37.0550   36.7140   18.1170 C.ar      1 B96        -0.0593
     12 C7         34.0700   34.8730   19.2770 C.ar      1 B96        -0.0528
     13 C8         33.6800   34.2450   18.0870 C.ar      1 B96        -0.0551
     14 N9         32.6030   33.4680   14.1560 N.am      1 B96        -0.1794
     15 C10        31.4490   33.4970   13.4860 C.2       1 B96         0.2188
     16 C14        30.6230   34.5430   13.3720 C.2       1 B96        -0.0194
     17 C13        29.6480   34.1840   12.5140 C.2       1 B96        -0.0041
     18 N12        29.8430   32.9430   12.0960 N.2       1 B96        -0.1672
     19 N11        31.0020   32.5220   12.7310 N.pl3     1 B96        -0.1067
     20 C15        31.5890   31.3350   12.5550 C.ar      1 B96         0.1228
     21 C17        27.9030   35.6540   13.3180 C.3       1 B96        -0.0859
     22 C18        27.5700   34.2410   11.3750 C.3       1 B96        -0.0859
     23 C19        29.0900   36.1090   11.2190 C.3       1 B96        -0.0859
     24 C16        28.6570   34.9690   12.1470 C.3       1 B96        -0.0463
     25 C20        31.7510   30.9020   11.3070 C.ar      1 B96        -0.0265
     26 C21        32.3860   29.7130   11.0460 C.ar      1 B96        -0.0608
     27 C22        32.8550   28.9620   12.0800 C.ar      1 B96        -0.0493
     28 C23        32.6890   29.3990   13.3870 C.ar      1 B96        -0.0608
     29 C24        32.0420   30.6080   13.6170 C.ar      1 B96        -0.0265
     30 C25        33.5550   27.6910   11.7990 C.3       1 B96        -0.0327
     31 O41        35.5610   36.3180   20.3550 O.3       1 B96        -0.3216
     32 C42        34.8700   35.9700   21.5440 C.3       1 B96         0.1073
     33 C43        35.2040   37.0260   22.6080 C.3       1 B96        -0.0036
     34 N44        34.1660   38.0790   22.8130 N.4       1 B96         0.2404
     35 C45        34.0940   38.8980   21.6080 C.3       1 B96        -0.0077
     36 C46        33.8330   40.3930   21.8460 C.3       1 B96         0.0878
     37 O47        34.7250   40.9080   22.8030 O.3       1 B96        -0.3693
     38 C48        34.3530   40.3450   24.0060 C.3       1 B96         0.0878
     39 C49        34.6010   38.8440   23.9970 C.3       1 B96        -0.0077
     40 H1         34.7675   33.3815   15.3275 H         1 B96         0.2264
     41 H2         35.9037   34.9517   14.9082 H         1 B96         0.0609
     42 H3         37.9262   36.4088   14.8852 H         1 B96         0.0577
     43 H4         38.6654   37.5266   16.9466 H         1 B96         0.0587
     44 H5         37.3701   37.2149   19.0252 H         1 B96         0.0598
     45 H6         33.5050   34.7143   20.1884 H         1 B96         0.0454
     46 H7         32.8053   33.6053   18.0603 H         1 B96         0.0411
     47 H8         33.3647   32.9964   13.7117 H         1 B96         0.2343
     48 H9         30.7201   35.5029   13.8770 H         1 B96         0.0221
     49 H10        27.0974   36.2858   12.9157 H         1 B96         0.0131
     50 H11        28.6051   36.2765   13.8920 H         1 B96         0.0131
     51 H12        27.4720   34.8853   13.9762 H         1 B96         0.0131
     52 H13        28.0170   33.7198   10.5157 H         1 B96         0.0131
     53 H14        26.8257   34.9673   11.0166 H         1 B96         0.0131
     54 H15        27.0802   33.5087   12.0337 H         1 B96         0.0131
     55 H16        29.8843   36.6952   11.7043 H         1 B96         0.0131
     56 H17        28.2282   36.7604   11.0116 H         1 B96         0.0131
     57 H18        29.4684   35.6898   10.2750 H         1 B96         0.0131
     58 H19        31.3754   31.4979   10.4830 H         1 B96         0.0595
     59 H20        32.5130   29.3747   10.0240 H         1 B96         0.0550
     60 H21        33.0583   28.8064   14.2162 H         1 B96         0.0550
     61 H22        31.8990   30.9691   14.6291 H         1 B96         0.0595
     62 H23        33.5840   27.5208   10.7126 H         1 B96         0.0385
     63 H24        33.0199   26.8623   12.2857 H         1 B96         0.0385
     64 H25        34.5820   27.7439   12.1894 H         1 B96         0.0385
     65 H26        35.1942   34.9768   21.8881 H         1 B96         0.0664
     66 H27        33.7861   35.9575   21.3568 H         1 B96         0.0664
     67 H28        36.1384   37.5241   22.3102 H         1 B96         0.0841
     68 H29        35.3544   36.5068   23.5660 H         1 B96         0.0841
     69 H30        33.2648   37.6623   22.9871 H         1 B96         0.2036
     70 H31        33.2807   38.5068   20.9791 H         1 B96         0.0837
     71 H32        35.0503   38.8008   21.0732 H         1 B96         0.0837
     72 H33        32.8019   40.5267   22.2050 H         1 B96         0.0613
     73 H34        33.9653   40.9376   20.8995 H         1 B96         0.0613
     74 H35        33.2828   40.5331   24.1771 H         1 B96         0.0613
     75 H36        34.9398   40.8030   24.8158 H         1 B96         0.0613
     76 H37        35.6848   38.6906   24.1060 H         1 B96         0.0837
     77 H38        34.0812   38.4210   24.8693 H         1 B96         0.0837
@<TRIPOS>BOND
     1    1    2 2  
     2    1    3 am 
     3    1   14 am 
     4    3    4 1  
     5    4    5 ar 
     6    4   13 ar 
     7    5    6 ar 
     8    5    8 ar 
     9    6    7 ar 
    10    6   11 ar 
    11    7   12 ar 
    12    7   31 1  
    13    8    9 ar 
    14    9   10 ar 
    15   10   11 ar 
    16   12   13 ar 
    17   14   15 am 
    18   15   16 2  
    19   15   19 1  
    20   16   17 1  
    21   17   18 2  
    22   17   24 1  
    23   18   19 1  
    24   19   20 1  
    25   20   25 ar 
    26   20   29 ar 
    27   24   21 1  
    28   24   22 1  
    29   24   23 1  
    30   25   26 ar 
    31   26   27 ar 
    32   27   28 ar 
    33   27   30 1  
    34   28   29 ar 
    35   31   32 1  
    36   32   33 1  
    37   33   34 1  
    38   34   35 1  
    39   34   39 1  
    40   35   36 1  
    41   36   37 1  
    42   37   38 1  
    43   38   39 1  
    44    3   40 1  
    45    8   41 1  
    46    9   42 1  
    47   10   43 1  
    48   11   44 1  
    49   12   45 1  
    50   13   46 1  
    51   14   47 1  
    52   16   48 1  
    53   21   49 1  
    54   21   50 1  
    55   21   51 1  
    56   22   52 1  
    57   22   53 1  
    58   22   54 1  
    59   23   55 1  
    60   23   56 1  
    61   23   57 1  
    62   25   58 1  
    63   26   59 1  
    64   28   60 1  
    65   29   61 1  
    66   30   62 1  
    67   30   63 1  
    68   30   64 1  
    69   32   65 1  
    70   32   66 1  
    71   33   67 1  
    72   33   68 1  
    73   34   69 1  
    74   35   70 1  
    75   35   71 1  
    76   36   72 1  
    77   36   73 1  
    78   38   74 1  
    79   38   75 1  
    80   39   76 1  
    81   39   77 1  
@<TRIPOS>SUBSTRUCTURE
     1 B96         1

