### 
### Created by X-TOOL on Mon Sep 10 21:12:50 2018
### 

@<TRIPOS>MOLECULE
1kwq_ligand
   30    31     1     0     0
SMALL
GAST_HUCK


@<TRIPOS>ATOM
      1 S1         -6.0500    0.9850   16.7860 S.o2      1 SG1         0.1134
      2 C2         -5.2920    2.2570   15.7850 C.ar      1 SG1         0.2171
      3 C3         -4.0920    2.0470   15.1140 C.ar      1 SG1         0.0823
      4 C4         -3.5130    3.1030   14.4010 C.ar      1 SG1         0.1296
      5 C5         -4.1280    4.3520   14.3190 C.ar      1 SG1         0.3496
      6 N6         -3.5760    5.3350   13.4460 N.am      1 SG1        -0.0664
      7 C7         -3.7390    5.3400   12.1200 C.2       1 SG1         0.3666
      8 O8         -4.3620    4.5140   11.4390 O.2       1 SG1        -0.2814
      9 C9         -3.0160    6.5160   11.5130 C.3       1 SG1         0.0898
     10 C10        -2.3660    7.2290   12.7130 C.3       1 SG1         0.0232
     11 C11        -2.8320    6.4740   13.9680 C.3       1 SG1         0.1523
     12 C12        -5.2590    4.6010   15.1190 C.ar      1 SG1         0.2686
     13 N13        -5.7670    5.8480   15.3280 N.2       1 SG1        -0.1510
     14 O14        -5.3480    6.4690   16.2870 O.2       1 SG1        -0.4640
     15 O15        -6.6120    6.2640   14.5560 O.2       1 SG1        -0.4640
     16 C16        -5.8810    3.5280   15.7500 C.ar      1 SG1         0.1115
     17 N17        -5.5400   -0.3800   16.0660 N.am      1 SG1        -0.2498
     18 O18        -7.4870    1.1090   16.6300 O.2       1 SG1        -0.1369
     19 O19        -5.4840    1.0100   18.1030 O.2       1 SG1        -0.1369
     20 H1         -3.6105    1.0762   15.1429 H         1 SG1         0.1017
     21 H2         -2.5642    2.9464   13.9007 H         1 SG1         0.1369
     22 H3         -3.7229    7.1844   10.9997 H         1 SG1         0.0551
     23 H4         -2.2497    6.1761   10.8008 H         1 SG1         0.0551
     24 H5         -2.6940    8.2781   12.7560 H         1 SG1         0.0346
     25 H6         -1.2698    7.1906   12.6307 H         1 SG1         0.0346
     26 H7         -1.9702    6.1372   14.5628 H         1 SG1         0.0965
     27 H8         -3.4793    7.1113   14.5884 H         1 SG1         0.0965
     28 H9         -6.8434    3.6788   16.2255 H         1 SG1         0.1061
     29 H10        -5.8196   -1.2699   16.4264 H         1 SG1         0.1647
     30 H11        -4.9466   -0.3299   15.2626 H         1 SG1         0.1647
@<TRIPOS>BOND
     1    1    2 1  
     2    1   17 am 
     3    1   18 2  
     4    1   19 2  
     5    2    3 ar 
     6    2   16 ar 
     7    3    4 ar 
     8    4    5 ar 
     9    5    6 1  
    10    5   12 ar 
    11    6    7 am 
    12    6   11 1  
    13    7    8 2  
    14    7    9 1  
    15    9   10 1  
    16   10   11 1  
    17   12   13 1  
    18   12   16 ar 
    19   13   14 2  
    20   13   15 2  
    21    3   20 1  
    22    4   21 1  
    23    9   22 1  
    24    9   23 1  
    25   10   24 1  
    26   10   25 1  
    27   11   26 1  
    28   11   27 1  
    29   16   28 1  
    30   17   29 1  
    31   17   30 1  
@<TRIPOS>SUBSTRUCTURE
     1 SG1         1

