### 
### Created by X-TOOL on Mon Sep 10 21:12:50 2018
### 

@<TRIPOS>MOLECULE
1kwr_ligand
   23    24     1     0     0
SMALL
GAST_HUCK


@<TRIPOS>ATOM
      1 S1         -5.7020    1.0070   16.6810 S.o2      1 SG2         0.0609
      2 C2         -5.0630    2.3060   15.6790 C.ar      1 SG2         0.0997
      3 C3         -3.7070    2.2600   15.4120 C.ar      1 SG2        -0.0430
      4 C4         -3.1660    3.2510   14.6300 C.ar      1 SG2        -0.0352
      5 C5         -3.9790    4.2690   14.0820 C.ar      1 SG2         0.0759
      6 N          -3.4940    5.3130   13.2510 N.pl3     1 SG2        -0.2296
      7 C6         -2.0940    5.4400   12.8500 C.3       1 SG2         0.0336
      8 S7         -4.8100    6.2840   12.8420 S.3       1 SG2         0.0836
      9 C8         -6.0650    5.4370   13.7000 C.2       1 SG2         0.2049
     10 O9         -7.2380    5.7590   13.7350 O.2       1 SG2        -0.3793
     11 C10        -5.3530    4.3050   14.3550 C.ar      1 SG2         0.0643
     12 C11        -5.9080    3.3080   15.1560 C.ar      1 SG2        -0.0279
     13 N12        -5.2960   -0.5040   15.9240 N.am      1 SG2        -0.2623
     14 O13        -7.1410    1.1640   16.7170 O.2       1 SG2        -0.1521
     15 O14        -5.1480    1.0640   18.0130 O.2       1 SG2        -0.1521
     16 H1         -3.0880    1.4636   15.8090 H         1 SG2         0.0638
     17 H2         -2.1006    3.2524   14.4303 H         1 SG2         0.0525
     18 H3         -1.9750    6.3266   12.2098 H         1 SG2         0.0502
     19 H4         -1.7892    4.5419   12.2928 H         1 SG2         0.0502
     20 H5         -1.4643    5.5472   13.7455 H         1 SG2         0.0502
     21 H6         -6.9700    3.3026   15.3733 H         1 SG2         0.0654
     22 H7         -5.5753   -1.3661   16.3469 H         1 SG2         0.1633
     23 H8         -4.7831   -0.5113   15.0656 H         1 SG2         0.1633
@<TRIPOS>BOND
     1    1    2 1  
     2    1   13 am 
     3    1   14 2  
     4    1   15 2  
     5    2    3 ar 
     6    2   12 ar 
     7    3    4 ar 
     8    4    5 ar 
     9    5    6 1  
    10    5   11 ar 
    11    6    7 1  
    12    6    8 1  
    13    8    9 1  
    14    9   10 2  
    15    9   11 1  
    16   11   12 ar 
    17    3   16 1  
    18    4   17 1  
    19    7   18 1  
    20    7   19 1  
    21    7   20 1  
    22   12   21 1  
    23   13   22 1  
    24   13   23 1  
@<TRIPOS>SUBSTRUCTURE
     1 SG2         1

