### 
### Created by X-TOOL on Sun Sep  9 21:50:03 2018
### 

@<TRIPOS>MOLECULE
1kyv_ligand
   47    49     1     0     0
SMALL
GAST_HUCK


@<TRIPOS>ATOM
      1 N1         74.5700   22.3310   38.8900 N.2       1 NON        -0.2549
      2 C2         73.8280   21.4480   38.1240 C.2       1 NON         0.2439
      3 O2         74.4390   20.7110   37.3880 O.2       1 NON        -0.3902
      4 N3         72.4750   21.5180   38.2990 N.am      1 NON        -0.1938
      5 C4         71.7250   22.3700   39.1500 C.2       1 NON         0.2704
      6 O4         70.5180   22.3150   39.1990 O.2       1 NON        -0.3655
      7 C4A        72.5970   23.3300   39.9600 C.2       1 NON         0.2076
      8 N5         72.0180   24.1870   40.7890 N.2       1 NON        -0.2387
      9 C5A        72.8360   25.0830   41.5410 C.ar      1 NON         0.0856
     10 C6         72.1220   26.0120   42.4220 C.ar      1 NON        -0.0403
     11 C7         72.9300   26.9010   43.1470 C.ar      1 NON        -0.0428
     12 C7M        72.3350   27.9590   44.1100 C.3       1 NON        -0.0352
     13 C8         74.4120   26.8550   42.9980 C.ar      1 NON        -0.0416
     14 C8M        75.2830   27.8710   43.8150 C.3       1 NON        -0.0312
     15 C9         75.1280   25.9750   42.1730 C.ar      1 NON        -0.0258
     16 C9A        74.2780   25.0680   41.4240 C.ar      1 NON         0.1048
     17 N10        74.8500   24.0780   40.4860 N.pl3     1 NON        -0.2138
     18 C10        74.0160   23.2490   39.7840 C.2       1 NON         0.1894
     19 C1'        76.3210   24.0370   40.3540 C.3       1 NON         0.0886
     20 C2'        76.9750   24.8080   39.2120 C.3       1 NON         0.1101
     21 O2'        76.7450   23.9880   38.0350 O.3       1 NON        -0.3865
     22 C3'        78.4230   25.0100   39.5410 C.3       1 NON         0.1114
     23 O3'        79.1610   23.8820   39.9930 O.3       1 NON        -0.3865
     24 C4'        78.7760   25.9980   40.6030 C.3       1 NON         0.1065
     25 O4'        77.9650   27.1870   40.5430 O.3       1 NON        -0.3869
     26 C5'        80.1530   26.7590   40.6850 C.3       1 NON         0.0727
     27 O5'        80.5280   27.0140   39.3200 O.3       1 NON        -0.3924
     28 H1         71.9373   20.8784   37.7497 H         1 NON         0.2248
     29 H2         71.0414   26.0121   42.5077 H         1 NON         0.0564
     30 H3         71.2384   27.8734   44.1163 H         1 NON         0.0366
     31 H4         72.6223   28.9655   43.7717 H         1 NON         0.0366
     32 H5         72.7219   27.7892   45.1256 H         1 NON         0.0366
     33 H6         76.3471   27.7040   43.5918 H         1 NON         0.0395
     34 H7         75.1064   27.7233   44.8906 H         1 NON         0.0395
     35 H8         75.0067   28.8984   43.5357 H         1 NON         0.0395
     36 H9         76.2097   25.9727   42.1019 H         1 NON         0.0493
     37 H10        76.6064   22.9811   40.2371 H         1 NON         0.0631
     38 H11        76.7414   24.4289   41.2919 H         1 NON         0.0631
     39 H12        76.4980   25.7902   39.0790 H         1 NON         0.0647
     40 H13        75.8104   23.9030   37.8874 H         1 NON         0.2100
     41 H14        78.8741   25.3540   38.5986 H         1 NON         0.0647
     42 H15        79.0263   23.1564   39.3947 H         1 NON         0.2100
     43 H16        78.6199   25.4666   41.5534 H         1 NON         0.0643
     44 H17        78.2057   27.6948   39.7771 H         1 NON         0.2100
     45 H18        80.9096   26.1340   41.1820 H         1 NON         0.0584
     46 H19        80.0386   27.7041   41.2360 H         1 NON         0.0584
     47 H20        80.6125   26.1890   38.8566 H         1 NON         0.2095
@<TRIPOS>BOND
     1   18    1 2  
     2    1    2 1  
     3    2    4 am 
     4    2    3 2  
     5    4    5 am 
     6    5    7 1  
     7    5    6 2  
     8   18    7 1  
     9    7    8 2  
    10    8    9 1  
    11    9   16 ar 
    12    9   10 ar 
    13   10   11 ar 
    14   11   13 ar 
    15   11   12 1  
    16   13   15 ar 
    17   13   14 1  
    18   16   15 ar 
    19   16   17 1  
    20   17   19 1  
    21   17   18 1  
    22   19   20 1  
    23   20   22 1  
    24   20   21 1  
    25   22   24 1  
    26   22   23 1  
    27   24   26 1  
    28   24   25 1  
    29   26   27 1  
    30    4   28 1  
    31   10   29 1  
    32   12   30 1  
    33   12   31 1  
    34   12   32 1  
    35   14   33 1  
    36   14   34 1  
    37   14   35 1  
    38   15   36 1  
    39   19   37 1  
    40   19   38 1  
    41   20   39 1  
    42   21   40 1  
    43   22   41 1  
    44   23   42 1  
    45   24   43 1  
    46   25   44 1  
    47   26   45 1  
    48   26   46 1  
    49   27   47 1  
@<TRIPOS>SUBSTRUCTURE
     1 NON         1

