### 
### Created by X-TOOL on Mon Sep 10 21:12:49 2018
### 

@<TRIPOS>MOLECULE
1kz8_ligand
   52    55     1     0     0
SMALL
GAST_HUCK


@<TRIPOS>ATOM
      1 O51        39.6200   78.7550   19.8340 O.3       1 PFE        -0.3741
      2 C47        39.8110   77.9700   20.9970 C.3       1 PFE         0.1150
      3 C48        41.2950   78.0450   21.2700 C.2       1 PFE         0.1197
      4 S45        42.0210   76.6080   21.8090 S.3       1 PFE         0.0030
      5 C43        43.5290   77.4080   22.0080 C.2       1 PFE         0.0164
      6 N44        42.1170   79.0800   21.1610 N.2       1 PFE        -0.3138
      7 C40        43.3930   78.7200   21.5920 C.2       1 PFE         0.0141
      8 C36        44.5130   79.6470   21.6190 C.ar      1 PFE        -0.0323
      9 C35        44.4220   80.9190   21.0140 C.ar      1 PFE        -0.0344
     10 C33        45.6920   79.2610   22.2580 C.ar      1 PFE        -0.0692
     11 C37        46.8080   80.1100   22.3350 C.ar      1 PFE        -0.0732
     12 C34        46.7020   81.3760   21.7670 C.ar      1 PFE        -0.0398
     13 C32        45.5300   81.7920   21.1130 C.ar      1 PFE         0.0646
     14 N3         45.3810   83.0700   20.5520 N.pl3     1 PFE        -0.2494
     15 C4         46.2970   83.9540   19.9510 C.ar      1 PFE         0.1508
     16 N2         47.5080   83.4660   19.6150 N.ar      1 PFE        -0.2606
     17 C7         48.3460   84.3380   19.0220 C.ar      1 PFE         0.0529
     18 C6         45.9080   85.3040   19.7570 C.ar      1 PFE         0.0394
     19 C9         44.6620   85.8660   20.1090 C.ar      1 PFE        -0.0171
     20 C13        44.3970   87.2210   19.8450 C.ar      1 PFE         0.1323
     21 O15        43.2450   87.9080   20.1700 O.3       1 PFE        -0.3169
     22 C20        42.3220   87.2900   21.1010 C.3       1 PFE         0.0665
     23 C21        41.1250   88.2110   21.1440 C.3       1 PFE        -0.0373
     24 C8         46.8890   86.1030   19.1350 C.ar      1 PFE         0.0267
     25 N5         48.0710   85.6190   18.7680 N.ar      1 PFE        -0.3051
     26 C18        46.6140   87.4360   18.8920 C.ar      1 PFE        -0.0167
     27 C16        45.3860   88.0000   19.2330 C.ar      1 PFE         0.1327
     28 O17        45.0380   89.3090   19.0150 O.3       1 PFE        -0.3132
     29 C19        46.0610   90.1500   18.4910 C.3       1 PFE         0.0683
     30 C26        45.5870   91.5700   18.7230 C.3       1 PFE        -0.0370
     31 H1         38.6992   78.7538   19.6002 H         1 PFE         0.2140
     32 H2         39.5015   76.9297   20.8182 H         1 PFE         0.0820
     33 H3         39.2398   78.3825   21.8417 H         1 PFE         0.0820
     34 H4         44.4405   76.9567   22.3971 H         1 PFE         0.0729
     35 H5         43.5242   81.2195   20.4861 H         1 PFE         0.0513
     36 H6         45.7481   78.2766   22.7083 H         1 PFE         0.0505
     37 H7         47.7224   79.7896   22.8211 H         1 PFE         0.0582
     38 H8         47.5430   82.0570   21.8306 H         1 PFE         0.0520
     39 H9         44.4166   83.4300   20.5867 H         1 PFE         0.2211
     40 H10        49.3221   83.9697   18.7274 H         1 PFE         0.1018
     41 H11        43.9069   85.2506   20.5845 H         1 PFE         0.0547
     42 H12        42.7790   87.2050   22.0979 H         1 PFE         0.0609
     43 H13        42.0274   86.2913   20.7463 H         1 PFE         0.0609
     44 H14        40.3739   87.8039   21.8369 H         1 PFE         0.0255
     45 H15        40.6890   88.2929   20.1374 H         1 PFE         0.0255
     46 H16        41.4406   89.2066   21.4891 H         1 PFE         0.0255
     47 H17        47.3707   88.0565   18.4257 H         1 PFE         0.0496
     48 H18        46.1975   89.9627   17.4157 H         1 PFE         0.0612
     49 H19        47.0102   89.9722   19.0176 H         1 PFE         0.0612
     50 H20        46.3384   92.2749   18.3376 H         1 PFE         0.0256
     51 H21        45.4456   91.7379   19.8009 H         1 PFE         0.0256
     52 H22        44.6329   91.7283   18.1989 H         1 PFE         0.0256
@<TRIPOS>BOND
     1    1    2 1  
     2    2    3 1  
     3    3    4 1  
     4    3    6 2  
     5    4    5 1  
     6    5    7 2  
     7    6    7 1  
     8    7    8 1  
     9    8    9 ar 
    10    8   10 ar 
    11    9   13 ar 
    12   10   11 ar 
    13   11   12 ar 
    14   12   13 ar 
    15   13   14 1  
    16   14   15 1  
    17   15   16 ar 
    18   15   18 ar 
    19   16   17 ar 
    20   17   25 ar 
    21   18   19 ar 
    22   18   24 ar 
    23   19   20 ar 
    24   20   21 1  
    25   20   27 ar 
    26   21   22 1  
    27   22   23 1  
    28   24   25 ar 
    29   24   26 ar 
    30   26   27 ar 
    31   27   28 1  
    32   28   29 1  
    33   29   30 1  
    34    1   31 1  
    35    2   32 1  
    36    2   33 1  
    37    5   34 1  
    38    9   35 1  
    39   10   36 1  
    40   11   37 1  
    41   12   38 1  
    42   14   39 1  
    43   17   40 1  
    44   19   41 1  
    45   22   42 1  
    46   22   43 1  
    47   23   44 1  
    48   23   45 1  
    49   23   46 1  
    50   26   47 1  
    51   29   48 1  
    52   29   49 1  
    53   30   50 1  
    54   30   51 1  
    55   30   52 1  
@<TRIPOS>SUBSTRUCTURE
     1 PFE         1

