### 
### Created by X-TOOL on Mon Sep 10 21:12:48 2018
### 

@<TRIPOS>MOLECULE
1kzk_ligand
   78    81     1     0     0
SMALL
GAST_HUCK


@<TRIPOS>ATOM
      1 C1         24.5000    2.3990   20.4240 C.ar      1 JE2         0.0948
      2 O2         25.8560    2.4460   20.5620 O.3       1 JE2        -0.3358
      3 C3         23.6870    3.4480   20.9470 C.ar      1 JE2        -0.0355
      4 C4         22.3390    3.4320   20.7260 C.ar      1 JE2        -0.0720
      5 C5         21.7270    2.3540   20.0240 C.ar      1 JE2        -0.0597
      6 C6         22.5330    1.3470   19.4330 C.ar      1 JE2         0.0427
      7 C7         23.9500    1.3580   19.6050 C.ar      1 JE2         0.0036
      8 C8         24.8990    0.3740   18.9300 C.3       1 JE2        -0.0293
      9 C9         21.8480    0.2670   18.6660 C.2       1 JE2         0.1980
     10 O10        22.0690   -0.9900   18.9430 O.2       1 JE2        -0.3887
     11 N11        20.9700    0.6590   17.7570 N.am      1 JE2        -0.2778
     12 C12        20.1730   -0.3620   16.9800 C.3       1 JE2         0.0938
     13 C13        18.6860    0.1940   16.8740 C.3       1 JE2         0.0085
     14 C14        18.1480    0.6370   18.2120 C.ar      1 JE2        -0.0406
     15 C15        18.0940    2.0320   18.5210 C.ar      1 JE2        -0.0603
     16 C16        17.6770    2.4080   19.8380 C.ar      1 JE2        -0.0686
     17 C17        17.3240    1.4600   20.8120 C.ar      1 JE2        -0.0687
     18 C18        17.3750    0.1040   20.4720 C.ar      1 JE2        -0.0686
     19 C19        17.7970   -0.2950   19.2130 C.ar      1 JE2        -0.0603
     20 C20        20.8680   -0.5040   15.6030 C.3       1 JE2         0.1683
     21 O21        20.5210    0.5820   14.7460 O.3       1 JE2        -0.3689
     22 C22        20.3600   -1.7850   14.9420 C.2       1 JE2         0.2129
     23 O23        19.2990   -1.8640   14.2880 O.2       1 JE2        -0.3938
     24 N24        21.1050   -2.9230   15.1300 N.am      1 JE2        -0.2383
     25 C25        22.3900   -2.9470   15.9220 C.3       1 JE2         0.0831
     26 S26        22.7750   -4.7050   16.1440 S.3       1 JE2        -0.1252
     27 C27        21.8980   -5.1370   14.5960 C.3       1 JE2         0.0532
     28 C28        22.7450   -4.7600   13.3790 C.3       1 JE2        -0.0463
     29 C29        21.5620   -6.6380   14.5150 C.3       1 JE2        -0.0463
     30 C30        20.6350   -4.2260   14.6100 C.3       1 JE2         0.1486
     31 C31        19.4740   -4.7460   15.4830 C.2       1 JE2         0.2049
     32 O32        19.3600   -4.5020   16.7210 O.2       1 JE2        -0.3943
     33 N33        18.5680   -5.5610   14.7910 N.am      1 JE2        -0.2748
     34 C34        17.4260   -6.2060   15.4830 C.3       1 JE2         0.0621
     35 C35        16.1360   -5.9810   14.6820 C.ar      1 JE2        -0.0193
     36 C36        15.4800   -4.7310   14.6670 C.ar      1 JE2        -0.0422
     37 C37        14.2670   -4.6240   13.9790 C.ar      1 JE2        -0.0671
     38 C38        13.7360   -5.7470   13.2960 C.ar      1 JE2        -0.0755
     39 C39        14.3650   -6.9590   13.3090 C.ar      1 JE2        -0.0754
     40 C40        15.5770   -7.0730   14.0280 C.ar      1 JE2        -0.0649
     41 C41        16.0130   -3.5750   15.4200 C.3       1 JE2        -0.0336
     42 H1         26.1897    3.2268   20.1360 H         1 JE2         0.2456
     43 H2         24.1364    4.2534   21.5166 H         1 JE2         0.0556
     44 H3         21.7273    4.2499   21.0894 H         1 JE2         0.0543
     45 H4         20.6473    2.3032   19.9415 H         1 JE2         0.0556
     46 H5         25.9336    0.5989   19.2285 H         1 JE2         0.0382
     47 H6         24.8047    0.4641   17.8378 H         1 JE2         0.0382
     48 H7         24.6435   -0.6510   19.2368 H         1 JE2         0.0382
     49 H8         20.8337    1.6344   17.5839 H         1 JE2         0.1850
     50 H9         20.1683   -1.3337   17.4956 H         1 JE2         0.0630
     51 H10        18.0377   -0.6010   16.4769 H         1 JE2         0.0451
     52 H11        18.6767    1.0525   16.1864 H         1 JE2         0.0451
     53 H12        18.3599    2.7799   17.7828 H         1 JE2         0.0557
     54 H13        17.6322    3.4609   20.0921 H         1 JE2         0.0599
     55 H14        17.0190    1.7718   21.8044 H         1 JE2         0.0559
     56 H15        17.0814   -0.6429   21.2007 H         1 JE2         0.0599
     57 H16        17.8593   -1.3541   18.9905 H         1 JE2         0.0557
     58 H17        21.9590   -0.5446   15.7372 H         1 JE2         0.0863
     59 H18        20.9313    0.4584   13.8981 H         1 JE2         0.2134
     60 H19        22.2523   -2.4558   16.8965 H         1 JE2         0.0640
     61 H20        23.1949   -2.4424   15.3675 H         1 JE2         0.0640
     62 H21        22.2038   -5.0261   12.4590 H         1 JE2         0.0245
     63 H22        23.6997   -5.3054   13.4135 H         1 JE2         0.0245
     64 H23        22.9404   -3.6776   13.3894 H         1 JE2         0.0245
     65 H24        21.0378   -6.8459   13.5705 H         1 JE2         0.0245
     66 H25        20.9165   -6.9155   15.3613 H         1 JE2         0.0245
     67 H26        22.4917   -7.2246   14.5552 H         1 JE2         0.0245
     68 H27        20.2646   -4.1104   13.5807 H         1 JE2         0.0816
     69 H28        18.6942   -5.7107   13.8104 H         1 JE2         0.1876
     70 H29        17.3134   -5.7691   16.4862 H         1 JE2         0.0668
     71 H30        17.6162   -7.2857   15.5725 H         1 JE2         0.0668
     72 H31        13.7322   -3.6811   13.9680 H         1 JE2         0.0537
     73 H32        12.8062   -5.6408   12.7490 H         1 JE2         0.0541
     74 H33        13.9469   -7.8096   12.7830 H         1 JE2         0.0541
     75 H34        16.0809   -8.0319   14.0702 H         1 JE2         0.0538
     76 H35        16.9683   -3.8523   15.8896 H         1 JE2         0.0376
     77 H36        15.2935   -3.2812   16.1985 H         1 JE2         0.0376
     78 H37        16.1737   -2.7318   14.7321 H         1 JE2         0.0376
@<TRIPOS>BOND
     1    1    7 ar 
     2    1    3 ar 
     3    1    2 1  
     4    3    4 ar 
     5    4    5 ar 
     6    5    6 ar 
     7    6    9 1  
     8    6    7 ar 
     9    7    8 1  
    10    9   11 am 
    11    9   10 2  
    12   11   12 1  
    13   12   20 1  
    14   12   13 1  
    15   13   14 1  
    16   14   19 ar 
    17   14   15 ar 
    18   15   16 ar 
    19   16   17 ar 
    20   17   18 ar 
    21   18   19 ar 
    22   20   22 1  
    23   20   21 1  
    24   22   24 am 
    25   22   23 2  
    26   24   30 1  
    27   24   25 1  
    28   25   26 1  
    29   26   27 1  
    30   27   30 1  
    31   27   29 1  
    32   27   28 1  
    33   30   31 1  
    34   31   33 am 
    35   31   32 2  
    36   33   34 1  
    37   34   35 1  
    38   35   40 ar 
    39   35   36 ar 
    40   36   41 1  
    41   36   37 ar 
    42   37   38 ar 
    43   38   39 ar 
    44   39   40 ar 
    45    2   42 1  
    46    3   43 1  
    47    4   44 1  
    48    5   45 1  
    49    8   46 1  
    50    8   47 1  
    51    8   48 1  
    52   11   49 1  
    53   12   50 1  
    54   13   51 1  
    55   13   52 1  
    56   15   53 1  
    57   16   54 1  
    58   17   55 1  
    59   18   56 1  
    60   19   57 1  
    61   20   58 1  
    62   21   59 1  
    63   25   60 1  
    64   25   61 1  
    65   28   62 1  
    66   28   63 1  
    67   28   64 1  
    68   29   65 1  
    69   29   66 1  
    70   29   67 1  
    71   30   68 1  
    72   33   69 1  
    73   34   70 1  
    74   34   71 1  
    75   37   72 1  
    76   38   73 1  
    77   39   74 1  
    78   40   75 1  
    79   41   76 1  
    80   41   77 1  
    81   41   78 1  
@<TRIPOS>SUBSTRUCTURE
     1 JE2         1

