### 
### Created by X-TOOL on Mon Sep 10 21:12:49 2018
### 

@<TRIPOS>MOLECULE
1kzn_ligand
   86    90     1     0     0
SMALL
GAST_HUCK


@<TRIPOS>ATOM
      1 C7         18.8020   24.1050   36.3490 C.3       1 CBN         0.0371
      2 C8         18.8670   28.0610   34.4960 C.3       1 CBN        -0.0334
      3 C12        19.7800   26.2630   33.1940 C.3       1 CBN        -0.0334
      4 C13        20.0830   26.0850   35.7500 C.3       1 CBN         0.1195
      5 C21        20.5530   26.8640   37.0010 C.3       1 CBN         0.1452
      6 C22        21.9800   27.3980   36.7800 C.3       1 CBN         0.1430
      7 C23        21.9390   28.2690   35.4890 C.3       1 CBN         0.2098
      8 C24        20.0060   27.0280   34.4950 C.3       1 CBN         0.0962
      9 C27        21.0800   30.5270   34.9930 C.ar      1 CBN         0.1002
     10 C28        20.1180   31.5210   35.4180 C.ar      1 CBN         0.0992
     11 C4         19.8990   32.6690   34.5810 C.ar      1 CBN         0.1391
     12 C11        18.9710   34.9870   34.3350 C.2       1 CBN         0.2846
     13 C31        19.6540   35.1360   33.0180 C.2       1 CBN         0.1691
     14 C9         20.4450   34.1120   32.5490 C.2       1 CBN         0.1134
     15 C32        20.6270   32.8390   33.3180 C.ar      1 CBN         0.0293
     16 C33        21.5740   31.8190   32.8900 C.ar      1 CBN        -0.0693
     17 C35        21.8070   30.6760   33.7110 C.ar      1 CBN        -0.0435
     18 C14        18.0840   36.6760   31.8520 C.2       1 CBN         0.2175
     19 C15        17.0000   35.7420   31.4970 C.ar      1 CBN         0.0368
     20 C16        17.2920   34.5070   30.7560 C.ar      1 CBN        -0.0477
     21 C17        16.2120   33.7010   30.2520 C.ar      1 CBN        -0.0043
     22 C18        14.8450   34.1450   30.4890 C.ar      1 CBN         0.0958
     23 C19        14.5440   35.3510   31.2450 C.ar      1 CBN        -0.0335
     24 C20        15.6200   36.1400   31.7660 C.ar      1 CBN        -0.0572
     25 C25        16.5010   32.4120   29.5170 C.3       1 CBN        -0.0144
     26 C26        16.2960   31.1300   30.3750 C.2       1 CBN        -0.0995
     27 C29        17.1960   30.2790   30.8980 C.2       1 CBN        -0.0848
     28 C30        16.7210   29.1560   31.7160 C.3       1 CBN        -0.0400
     29 C34        18.6210   30.5360   30.7380 C.3       1 CBN        -0.0400
     30 N1         19.3180   36.2940   32.1840 N.am      1 CBN        -0.2404
     31 O1         18.8300   25.5040   36.0880 O.3       1 CBN        -0.3739
     32 O2         20.5180   26.0190   38.1540 O.3       1 CBN        -0.2718
     33 O3         21.2620   27.6860   34.3740 O.3       1 CBN        -0.3363
     34 O4         21.2760   29.4610   35.8670 O.3       1 CBN        -0.2878
     35 O5         21.1150   34.2200   31.3710 O.3       1 CBN        -0.3458
     36 O6         19.0610   33.7420   35.0210 O.3       1 CBN        -0.2167
     37 O7         18.1920   35.7970   34.7370 O.2       1 CBN        -0.3787
     38 O8         17.8870   37.8240   31.7570 O.2       1 CBN        -0.3812
     39 O9         13.7970   33.3800   30.0440 O.3       1 CBN        -0.3332
     40 C1         19.5130   23.7420   41.5590 C.2       1 CBN        -0.0744
     41 C2         19.5560   24.2690   40.3450 C.2       1 CBN        -0.0709
     42 C3         20.0400   25.6330   40.4530 C.2       1 CBN         0.1253
     43 N2         20.3100   25.9400   41.8560 N.pl3     1 CBN        -0.2754
     44 C5         19.8900   24.7250   42.5610 C.2       1 CBN         0.0393
     45 C6         19.6810   24.8600   44.0060 C.3       1 CBN        -0.0079
     46 C10        20.3780   26.5730   39.4070 C.2       1 CBN         0.2658
     47 O10        20.5240   27.7620   39.6120 O.2       1 CBN        -0.3705
     48 O11        22.8530   26.2650   36.7100 O.3       1 CBN        -0.3833
     49 CL1        19.2400   31.4040   36.9200 Cl        1 CBN        -0.0869
     50 H1         17.7746   23.7984   36.5951 H         1 CBN         0.0524
     51 H2         19.4656   23.8767   37.1961 H         1 CBN         0.0524
     52 H3         19.1440   23.5588   35.4576 H         1 CBN         0.0524
     53 H4         18.9141   28.6595   33.5743 H         1 CBN         0.0258
     54 H5         18.9727   28.7225   35.3685 H         1 CBN         0.0258
     55 H6         17.8995   27.5400   34.5458 H         1 CBN         0.0258
     56 H7         19.7351   26.9725   32.3546 H         1 CBN         0.0258
     57 H8         18.8328   25.7071   33.2553 H         1 CBN         0.0258
     58 H9         20.6092   25.5581   33.0343 H         1 CBN         0.0258
     59 H10        20.8014   25.2818   35.5291 H         1 CBN         0.0655
     60 H11        19.8758   27.7152   37.1646 H         1 CBN         0.0702
     61 H12        22.2877   28.0301   37.6260 H         1 CBN         0.0679
     62 H13        22.9708   28.4929   35.1804 H         1 CBN         0.0994
     63 H14        22.1010   31.9281   31.9490 H         1 CBN         0.0541
     64 H15        22.5150   29.9175   33.3972 H         1 CBN         0.0467
     65 H16        18.3193   34.2038   30.5894 H         1 CBN         0.0575
     66 H17        13.5155   35.6496   31.4124 H         1 CBN         0.0535
     67 H18        15.4121   37.0257   32.3554 H         1 CBN         0.0583
     68 H19        17.5467   32.4358   29.1764 H         1 CBN         0.0479
     69 H20        15.8326   32.3544   28.6453 H         1 CBN         0.0479
     70 H21        15.2567   30.8824   30.5856 H         1 CBN         0.0258
     71 H22        17.5815   28.5644   32.0616 H         1 CBN         0.0378
     72 H23        16.0563   28.5191   31.1139 H         1 CBN         0.0378
     73 H24        16.1694   29.5431   32.5854 H         1 CBN         0.0378
     74 H25        18.7648   31.4153   30.0928 H         1 CBN         0.0378
     75 H26        19.1020   29.6606   30.2773 H         1 CBN         0.0378
     76 H27        19.0722   30.7263   31.7230 H         1 CBN         0.0378
     77 H28        20.0773   36.8432   31.8350 H         1 CBN         0.2201
     78 H29        21.6047   33.4217   31.2122 H         1 CBN         0.2418
     79 H30        12.9778   33.8023   30.2746 H         1 CBN         0.2477
     80 H31        19.2333   22.7123   41.7769 H         1 CBN         0.0223
     81 H32        19.2756   23.7643   39.4217 H         1 CBN         0.0359
     82 H33        20.7023   26.8048   42.2550 H         1 CBN         0.2325
     83 H34        19.3703   23.8910   44.4236 H         1 CBN         0.0422
     84 H35        18.8976   25.6087   44.1948 H         1 CBN         0.0422
     85 H36        20.6183   25.1815   44.4836 H         1 CBN         0.0422
     86 H37        22.8016   25.7763   37.5231 H         1 CBN         0.2101
@<TRIPOS>BOND
     1    1   31 1  
     2   31    4 1  
     3    4    8 1  
     4    4    5 1  
     5    5   32 1  
     6    5    6 1  
     7    6   48 1  
     8    6    7 1  
     9    7   34 1  
    10    7   33 1  
    11   33    8 1  
    12    8    3 1  
    13    8    2 1  
    14   34    9 1  
    15    9   10 ar 
    16    9   17 ar 
    17   17   16 ar 
    18   16   15 ar 
    19   15   14 1  
    20   15   11 ar 
    21   11   36 1  
    22   11   10 ar 
    23   36   12 1  
    24   12   37 2  
    25   12   13 1  
    26   13   30 am 
    27   13   14 2  
    28   14   35 1  
    29   30   18 am 
    30   18   38 2  
    31   18   19 1  
    32   19   24 ar 
    33   19   20 ar 
    34   20   21 ar 
    35   21   25 1  
    36   21   22 ar 
    37   22   39 1  
    38   22   23 ar 
    39   23   24 ar 
    40   25   26 1  
    41   26   27 2  
    42   27   29 1  
    43   27   28 1  
    44   32   46 1  
    45   46   47 2  
    46   46   42 1  
    47   42   43 1  
    48   42   41 2  
    49   41   40 1  
    50   40   44 2  
    51   44   45 1  
    52   44   43 1  
    53   10   49 1  
    54    1   50 1  
    55    1   51 1  
    56    1   52 1  
    57    2   53 1  
    58    2   54 1  
    59    2   55 1  
    60    3   56 1  
    61    3   57 1  
    62    3   58 1  
    63    4   59 1  
    64    5   60 1  
    65    6   61 1  
    66    7   62 1  
    67   16   63 1  
    68   17   64 1  
    69   20   65 1  
    70   23   66 1  
    71   24   67 1  
    72   25   68 1  
    73   25   69 1  
    74   26   70 1  
    75   28   71 1  
    76   28   72 1  
    77   28   73 1  
    78   29   74 1  
    79   29   75 1  
    80   29   76 1  
    81   30   77 1  
    82   35   78 1  
    83   39   79 1  
    84   40   80 1  
    85   41   81 1  
    86   43   82 1  
    87   45   83 1  
    88   45   84 1  
    89   45   85 1  
    90   48   86 1  
@<TRIPOS>SUBSTRUCTURE
     1 CBN         1

