### 
### Created by X-TOOL on Mon Sep 10 21:12:48 2018
### 

@<TRIPOS>MOLECULE
1l2s_ligand
   26    27     1     0     0
SMALL
GAST_HUCK


@<TRIPOS>ATOM
      1 N1         23.9580    4.3210   13.8760 N.am      1 STC        -0.1884
      2 C2         22.7830    4.6990   13.2060 C.ar      1 STC         0.0629
      3 C3         21.7520    5.3460   13.9220 C.ar      1 STC        -0.0448
      4 C4         22.6370    4.4260   11.8220 C.ar      1 STC        -0.0448
      5 C5         20.5620    5.7140   13.2600 C.ar      1 STC        -0.0639
      6 C6         21.4460    4.7960   11.1610 C.ar      1 STC        -0.0639
      7 C7         20.4110    5.4330   11.8830 C.ar      1 STC         0.0218
      8 S13        25.2760    5.4300   13.8970 S.o2      1 STC         0.0818
      9 C15        25.0170    6.7010   15.2220 C.2       1 STC         0.1133
     10 O16        26.4830    4.6860   14.1520 O.2       1 STC        -0.1467
     11 O17        25.3670    6.0870   12.6250 O.2       1 STC        -0.1467
     12 C18        24.7470    6.4870   16.5870 C.2       1 STC         0.0878
     13 C19        25.0600    8.0870   15.0100 C.2       1 STC        -0.0444
     14 S20        24.6290    7.7630   17.2160 S.3       1 STC        -0.0301
     15 C21        24.6010    5.1790   17.2960 C.2       1 STC         0.0698
     16 C22        24.8220    8.7390   16.2240 C.2       1 STC        -0.0009
     17 O23        24.7180    4.0210   16.6520 O.co2     1 STC        -0.5629
     18 O24        24.3710    5.1850   18.4900 O.co2     1 STC        -0.5629
     19 H1         24.0277    3.4320   14.3287 H         1 STC         0.2164
     20 H2         21.8748    5.5593   14.9777 H         1 STC         0.0483
     21 H3         23.4348    3.9364   11.2754 H         1 STC         0.0483
     22 H4         19.7669    6.2101   13.8048 H         1 STC         0.0579
     23 H5         21.3254    4.5923   10.1032 H         1 STC         0.0579
     24 H6         25.2481    8.5758   14.0552 H         1 STC         0.0443
     25 H7         24.7915    9.8171   16.3745 H         1 STC         0.0765
     26 CL8        18.9380    5.8670   11.0820 Cl        1 STC        -0.0866
@<TRIPOS>BOND
     1    1    8 am 
     2    1    2 1  
     3    2    4 ar 
     4    2    3 ar 
     5    3    5 ar 
     6    5    7 ar 
     7    7    6 ar 
     8    6    4 ar 
     9    8   11 2  
    10    8   10 2  
    11    8    9 1  
    12    9   13 1  
    13    9   12 2  
    14   12   15 1  
    15   12   14 1  
    16   14   16 1  
    17   16   13 2  
    18   15   18 ar 
    19   15   17 ar 
    20    1   19 1  
    21    3   20 1  
    22    4   21 1  
    23    5   22 1  
    24    6   23 1  
    25   13   24 1  
    26   16   25 1  
    27    7   26 1  
@<TRIPOS>SUBSTRUCTURE
     1 STC         1

