### 
### Created by X-TOOL on Mon Sep 10 21:12:49 2018
### 

@<TRIPOS>MOLECULE
1l5q_ligand
   24    25     1     0     0
SMALL
GAST_HUCK


@<TRIPOS>ATOM
      1 N1         38.6960  -58.4400  101.9380 N.am      1 CFF        -0.1740
      2 C2         37.4250  -58.1340  102.7200 C.2       1 CFF         0.3177
      3 C10        39.9420  -58.1140  102.6770 C.3       1 CFF         0.0477
      4 C6         38.7410  -58.9840  100.6370 C.2       1 CFF         0.2297
      5 N3         36.3240  -58.4340  102.0490 N.am      1 CFF        -0.2025
      6 O11        37.5510  -57.6770  103.8030 O.2       1 CFF        -0.3873
      7 C12        34.9970  -58.1780  102.7150 C.3       1 CFF         0.0446
      8 C4         36.3100  -58.9870  100.7360 C.2       1 CFF         0.1377
      9 C5         37.4630  -59.2600  100.0450 C.2       1 CFF         0.1624
     10 N9         35.2490  -59.2960  100.0490 N.2       1 CFF        -0.2859
     11 O13        39.8750  -59.2060  100.0650 O.2       1 CFF        -0.4007
     12 N7         37.0530  -59.7940   98.8110 N.pl3     1 CFF        -0.2541
     13 C8         35.7130  -59.7850   98.8880 C.2       1 CFF         0.0975
     14 C14        37.8900  -60.2580   97.6980 C.3       1 CFF         0.0424
     15 H1         39.6857  -57.7039  103.6650 H         1 CFF         0.0539
     16 H2         40.5206  -57.3699  102.1100 H         1 CFF         0.0539
     17 H3         40.5427  -59.0267  102.8036 H         1 CFF         0.0539
     18 H4         35.1649  -57.7536  103.7158 H         1 CFF         0.0548
     19 H5         34.4438  -59.1244  102.8062 H         1 CFF         0.0548
     20 H6         34.4134  -57.4691  102.1093 H         1 CFF         0.0548
     21 H7         35.0657  -60.1396   98.0872 H         1 CFF         0.1263
     22 H8         38.9509  -60.1271   97.9577 H         1 CFF         0.0575
     23 H9         37.6584  -59.6724   96.7961 H         1 CFF         0.0575
     24 H10        37.6881  -61.3222   97.5062 H         1 CFF         0.0575
@<TRIPOS>BOND
     1    1    2 am 
     2    1    3 1  
     3    1    4 am 
     4    2    5 am 
     5    2    6 2  
     6    4    9 1  
     7    4   11 2  
     8    5    7 1  
     9    5    8 1  
    10    8    9 2  
    11    8   10 1  
    12    9   12 1  
    13   10   13 2  
    14   12   13 1  
    15   12   14 1  
    16    3   15 1  
    17    3   16 1  
    18    3   17 1  
    19    7   18 1  
    20    7   19 1  
    21    7   20 1  
    22   13   21 1  
    23   14   22 1  
    24   14   23 1  
    25   14   24 1  
@<TRIPOS>SUBSTRUCTURE
     1 CFF         1

