### 
### Created by X-TOOL on Mon Sep 10 21:12:49 2018
### 

@<TRIPOS>MOLECULE
1l5r_ligand
   48    50     1     0     0
SMALL
GAST_HUCK


@<TRIPOS>ATOM
      1 N1         36.1500  -58.7290   99.8420 N.am      1 RBF        -0.1380
      2 C2         36.3280  -59.3000   98.5780 C.2       1 RBF         0.3774
      3 O2         35.4650  -59.4820   97.7700 O.2       1 RBF        -0.3507
      4 N3         37.6190  -59.6860   98.2520 N.am      1 RBF        -0.1640
      5 C4         38.6810  -59.5260   99.1340 C.2       1 RBF         0.2673
      6 O4         39.8390  -59.8560   98.8920 O.2       1 RBF        -0.3695
      7 C4A        38.4490  -58.9190  100.5060 C.ar      1 RBF         0.2249
      8 N5         39.4540  -58.7990  101.3140 N.ar      1 RBF        -0.2266
      9 C5A        39.1960  -58.2390  102.5770 C.ar      1 RBF         0.1140
     10 C6         40.2820  -58.1150  103.4790 C.ar      1 RBF         0.0178
     11 C7         40.0800  -57.5650  104.7510 C.ar      1 RBF         0.0225
     12 C7M        41.1860  -57.3970  105.8000 C.3       1 RBF        -0.0058
     13 C8         38.7280  -57.1150  105.1280 C.ar      1 RBF         0.0141
     14 C8M        38.4780  -56.4970  106.5430 C.3       1 RBF        -0.0187
     15 C9         37.6550  -57.2180  104.2780 C.ar      1 RBF         0.0082
     16 C9A        37.9050  -57.7940  102.9870 C.ar      1 RBF         0.1020
     17 N10        36.8840  -57.9670  102.0180 N.ar      1 RBF        -0.2734
     18 C10        37.1050  -58.5270  100.7840 C.ar      1 RBF         0.2625
     19 C1         35.4500  -57.5220  102.3080 C.3       1 RBF         0.0604
     20 C2         34.7090  -58.6060  103.1460 C.3       1 RBF         0.1011
     21 O2         34.5180  -59.8210  102.3570 O.3       1 RBF        -0.3875
     22 C3         33.3120  -58.1390  103.5260 C.3       1 RBF         0.1105
     23 O3         32.6690  -57.9220  102.2940 O.3       1 RBF        -0.3865
     24 C4         33.3070  -56.9020  104.3570 C.3       1 RBF         0.1065
     25 O4         34.2490  -56.7170  105.4080 O.3       1 RBF        -0.3869
     26 C5         31.9130  -56.7320  105.0840 C.3       1 RBF         0.0726
     27 O5         31.9860  -55.3330  105.3570 O.3       1 RBF        -0.3924
     28 H1         35.2219  -58.4394  100.0759 H         1 RBF         0.3006
     29 H2         37.7914  -60.0921   97.3546 H         1 RBF         0.2282
     30 H3         41.2710  -58.4465  103.1838 H         1 RBF         0.0940
     31 H4         42.1374  -57.7698  105.3926 H         1 RBF         0.0505
     32 H5         40.9248  -57.9684  106.7029 H         1 RBF         0.0505
     33 H6         41.2892  -56.3324  106.0568 H         1 RBF         0.0505
     34 H7         37.4173  -56.2226  106.6410 H         1 RBF         0.0409
     35 H8         39.1018  -55.5995  106.6666 H         1 RBF         0.0409
     36 H9         38.7389  -57.2343  107.3165 H         1 RBF         0.0409
     37 H10        36.6664  -56.8806  104.5677 H         1 RBF         0.0899
     38 H11        34.9173  -57.3707  101.3576 H         1 RBF         0.0513
     39 H12        35.4696  -56.5777  102.8717 H         1 RBF         0.0513
     40 H13        35.2943  -58.8272  104.0507 H         1 RBF         0.0637
     41 H14        34.0005  -59.6188  101.5864 H         1 RBF         0.2100
     42 H15        32.7971  -58.9334  104.0861 H         1 RBF         0.0646
     43 H16        32.6507  -58.7335  101.8004 H         1 RBF         0.2100
     44 H17        33.4489  -56.0708  103.6506 H         1 RBF         0.0643
     45 H18        34.0958  -55.8772  105.8249 H         1 RBF         0.2100
     46 H19        31.8498  -57.3311  106.0044 H         1 RBF         0.0584
     47 H20        31.0686  -56.9821  104.4249 H         1 RBF         0.0584
     48 H21        32.7424  -55.1573  105.9043 H         1 RBF         0.2095
@<TRIPOS>BOND
     1    1    2 am 
     2    1   18 1  
     3    2    3 2  
     4    2    4 am 
     5    4    5 am 
     6    5    6 2  
     7    5    7 1  
     8    7    8 ar 
     9    7   18 ar 
    10    8    9 ar 
    11    9   10 ar 
    12    9   16 ar 
    13   10   11 ar 
    14   11   12 1  
    15   11   13 ar 
    16   13   14 1  
    17   13   15 ar 
    18   15   16 ar 
    19   16   17 ar 
    20   17   18 ar 
    21   17   19 1  
    22   19   20 1  
    23   20   21 1  
    24   20   22 1  
    25   22   23 1  
    26   22   24 1  
    27   24   25 1  
    28   24   26 1  
    29   26   27 1  
    30    1   28 1  
    31    4   29 1  
    32   10   30 1  
    33   12   31 1  
    34   12   32 1  
    35   12   33 1  
    36   14   34 1  
    37   14   35 1  
    38   14   36 1  
    39   15   37 1  
    40   19   38 1  
    41   19   39 1  
    42   20   40 1  
    43   21   41 1  
    44   22   42 1  
    45   23   43 1  
    46   24   44 1  
    47   25   45 1  
    48   26   46 1  
    49   26   47 1  
    50   27   48 1  
@<TRIPOS>SUBSTRUCTURE
     1 RBF         1

