### 
### Created by X-TOOL on Mon Sep 10 21:12:49 2018
### 

@<TRIPOS>MOLECULE
1l5s_ligand
   16    17     1     0     0
SMALL
GAST_HUCK


@<TRIPOS>ATOM
      1 N1         38.2170  -59.8000   98.3950 N.am      1 URC        -0.1906
      2 C2         36.8790  -59.8580   98.2720 C.2       1 URC         0.3156
      3 C6         38.8200  -59.2600   99.4670 C.2       1 URC         0.1999
      4 N3         36.0750  -59.3720   99.2250 N.am      1 URC        -0.1947
      5 O11        36.3880  -60.3650   97.2760 O.2       1 URC        -0.3876
      6 C4         36.5840  -58.8190  100.3250 C.2       1 URC         0.1963
      7 C5         37.9180  -58.7230  100.5210 C.2       1 URC         0.1462
      8 N9         36.0360  -58.2870  101.3770 N.am      1 URC        -0.1976
      9 O13        40.0320  -59.1930   99.6130 O.2       1 URC        -0.4201
     10 N7         38.1010  -58.1470  101.6710 N.am      1 URC        -0.2493
     11 C8         36.9450  -57.8660  102.2240 C.2       1 URC         0.2943
     12 O24        36.7530  -57.3270  103.3000 O.2       1 URC        -0.4084
     13 H1         38.7843  -60.1729   97.6608 H         1 URC         0.2244
     14 H2         35.0830  -59.4244   99.1104 H         1 URC         0.2305
     15 H3         35.0496  -58.2088  101.5218 H         1 URC         0.2340
     16 H4         38.9933  -57.9469  102.0758 H         1 URC         0.2070
@<TRIPOS>BOND
     1    1    2 am 
     2    1    3 am 
     3    2    4 am 
     4    2    5 2  
     5    3    7 1  
     6    3    9 2  
     7    4    6 am 
     8    6    7 2  
     9    6    8 am 
    10    7   10 am 
    11    8   11 am 
    12   10   11 am 
    13   11   12 2  
    14    1   13 1  
    15    4   14 1  
    16    8   15 1  
    17   10   16 1  
@<TRIPOS>SUBSTRUCTURE
     1 URC         1

