### 
### Created by X-TOOL on Fri Sep 26 17:34:24 2014
### 

@<TRIPOS>MOLECULE
1l6m_ligand
   16    16     1     0     0
SMALL
GAST_HUCK


@<TRIPOS>ATOM
      1 O17        31.1090   76.4080   66.2180 O.co2     1 DBH        -0.5646
      2 C21        32.0030   75.6200   65.5910 C.2       1 DBH         0.0554
      3 O9         33.0180   75.2480   66.1960 O.co2     1 DBH        -0.5646
      4 C18        31.6450   75.1920   64.1430 C.ar      1 DBH         0.0304
      5 C15        32.4820   74.2040   63.4330 C.ar      1 DBH        -0.0675
      6 C12        32.1960   73.7700   62.1370 C.ar      1 DBH        -0.0783
      7 C3         30.5140   75.6890   63.4150 C.ar      1 DBH         0.1314
      8 O3         29.6370   76.5890   63.8880 O.3       1 DBH        -0.3332
      9 C6         30.2330   75.2120   62.0490 C.ar      1 DBH         0.1200
     10 C9         31.0810   74.2540   61.4240 C.ar      1 DBH        -0.0390
     11 O6         29.1390   75.7420   61.4610 O.3       1 DBH        -0.3362
     12 H1         33.3522   73.8000   63.9375 H         1 DBH         0.0527
     13 H2         32.8481   73.0424   61.6675 H         1 DBH         0.0503
     14 H3         28.9763   76.7629   63.2279 H         1 DBH         0.2460
     15 H4         30.8730   73.9039   60.4194 H         1 DBH         0.0529
     16 H5         28.7265   76.3559   62.0572 H         1 DBH         0.2443
@<TRIPOS>BOND
     1    1    2 ar 
     2    2    3 ar 
     3    2    4 1  
     4    4    5 ar 
     5    4    7 ar 
     6    5    6 ar 
     7    6   10 ar 
     8    7    8 1  
     9    7    9 ar 
    10    9   10 ar 
    11    9   11 1  
    12    5   12 1  
    13    6   13 1  
    14    8   14 1  
    15   10   15 1  
    16   11   16 1  
@<TRIPOS>SUBSTRUCTURE
     1 DBH         1

