### 
### Created by X-TOOL on Mon Sep 10 21:12:49 2018
### 

@<TRIPOS>MOLECULE
1l6s_ligand
   30    29     1     0     0
SMALL
GAST_HUCK


@<TRIPOS>ATOM
      1 C1         21.1330   91.2050   49.0930 C.2       1 DSB         0.0348
      2 O2         22.2470   90.9800   48.5420 O.co2     1 DSB        -0.5690
      3 C2         20.8450   90.3720   50.3230 C.3       1 DSB         0.0002
      4 C3         19.3590   90.3810   50.6570 C.3       1 DSB        -0.0414
      5 C5         19.3170   89.5610   53.0580 C.3       1 DSB        -0.0530
      6 O1         20.2590   92.0480   48.7160 O.co2     1 DSB        -0.5690
      7 C6         19.1570   88.3590   53.9740 C.3       1 DSB        -0.0530
      8 C8         21.3060   87.0790   52.8760 C.3       1 DSB        -0.0414
      9 C9         22.1390   88.2820   53.2740 C.3       1 DSB         0.0002
     10 C10        23.5780   87.8550   53.4840 C.2       1 DSB         0.0348
     11 O11        23.8360   86.6240   53.4500 O.co2     1 DSB        -0.5690
     12 O12        24.4110   88.7700   53.7030 O.co2     1 DSB        -0.5690
     13 C7         19.9280   87.0940   53.5040 C.3       1 DSB        -0.0516
     14 C4         19.0060   89.2710   51.5990 C.3       1 DSB        -0.0516
     15 H1         21.4069   90.7830   51.1747 H         1 DSB         0.0430
     16 H2         21.1651   89.3360   50.1381 H         1 DSB         0.0430
     17 H3         18.7822   90.2597   49.7282 H         1 DSB         0.0283
     18 H4         19.1027   91.3430   51.1248 H         1 DSB         0.0283
     19 H5         20.3570   89.9126   53.1268 H         1 DSB         0.0265
     20 H6         18.6382   90.3537   53.4055 H         1 DSB         0.0265
     21 H7         18.0873   88.1094   54.0323 H         1 DSB         0.0265
     22 H8         19.5240   88.6354   54.9734 H         1 DSB         0.0265
     23 H9         21.8295   86.1660   53.1960 H         1 DSB         0.0283
     24 H10        21.1948   87.0734   51.7817 H         1 DSB         0.0283
     25 H11        21.7436   88.7088   54.2075 H         1 DSB         0.0430
     26 H12        22.0940   89.0387   52.4769 H         1 DSB         0.0430
     27 H13        19.2692   86.6105   52.7676 H         1 DSB         0.0266
     28 H14        20.0100   86.4567   54.3968 H         1 DSB         0.0266
     29 H15        19.5680   88.3741   51.2995 H         1 DSB         0.0266
     30 H16        17.9274   89.0745   51.5100 H         1 DSB         0.0266
@<TRIPOS>BOND
     1    1    2 ar 
     2    3    1 1  
     3    1    6 ar 
     4    4    3 1  
     5   14    4 1  
     6    7    5 1  
     7    5   14 1  
     8   13    7 1  
     9    8    9 1  
    10    8   13 1  
    11    9   10 1  
    12   10   11 ar 
    13   10   12 ar 
    14    3   15 1  
    15    3   16 1  
    16    4   17 1  
    17    4   18 1  
    18    5   19 1  
    19    5   20 1  
    20    7   21 1  
    21    7   22 1  
    22    8   23 1  
    23    8   24 1  
    24    9   25 1  
    25    9   26 1  
    26   13   27 1  
    27   13   28 1  
    28   14   29 1  
    29   14   30 1  
@<TRIPOS>SUBSTRUCTURE
     1 DSB         1

