### 
### Created by X-TOOL on Mon Sep 10 21:12:49 2018
### 

@<TRIPOS>MOLECULE
1l6y_ligand
   30    29     1     0     0
SMALL
GAST_HUCK


@<TRIPOS>ATOM
      1 C7         22.9170   86.5260   54.0730 C.3       1 4OX        -0.0516
      2 C8         24.4170   86.2690   54.2110 C.3       1 4OX        -0.0414
      3 C9         25.2610   87.1490   53.2360 C.3       1 4OX         0.0002
      4 C10        26.8220   87.0210   53.4680 C.2       1 4OX         0.0348
      5 OT1        27.4980   86.1100   52.8380 O.co2     1 4OX        -0.5690
      6 OT2        27.3540   87.8580   54.2740 O.co2     1 4OX        -0.5690
      7 O1         21.8640   91.6230   48.9630 O.co2     1 4OX        -0.5690
      8 C1         22.2960   90.4820   49.2360 C.2       1 4OX         0.0348
      9 OH1        23.4240   90.0500   48.9030 O.co2     1 4OX        -0.5690
     10 C2         21.3890   89.5150   49.9800 C.3       1 4OX         0.0002
     11 C3         21.3710   89.7190   51.4920 C.3       1 4OX        -0.0414
     12 C4         20.8360   88.5110   52.2010 C.3       1 4OX        -0.0516
     13 C5         21.0610   88.3950   53.7240 C.3       1 4OX        -0.0530
     14 C6         22.5550   88.0680   54.0960 C.3       1 4OX        -0.0530
     15 H1         22.3971   86.0303   54.9061 H         1 4OX         0.0266
     16 H2         22.5731   86.0983   53.1197 H         1 4OX         0.0266
     17 H3         24.6159   85.2093   53.9931 H         1 4OX         0.0283
     18 H4         24.7210   86.4943   55.2439 H         1 4OX         0.0283
     19 H5         24.9724   88.2011   53.3768 H         1 4OX         0.0430
     20 H6         25.0352   86.8417   52.2042 H         1 4OX         0.0430
     21 H7         21.7321   88.4905   49.7734 H         1 4OX         0.0430
     22 H8         20.3639   89.6417   49.6018 H         1 4OX         0.0430
     23 H9         20.7342   90.5841   51.7288 H         1 4OX         0.0283
     24 H10        22.3966   89.9126   51.8392 H         1 4OX         0.0283
     25 H11        21.2994   87.6287   51.7355 H         1 4OX         0.0266
     26 H12        19.7496   88.4878   52.0299 H         1 4OX         0.0266
     27 H13        20.4178   87.5925   54.1143 H         1 4OX         0.0265
     28 H14        20.7825   89.3496   54.1943 H         1 4OX         0.0265
     29 H15        23.2085   88.5848   53.3778 H         1 4OX         0.0265
     30 H16        22.7482   88.4509   55.1089 H         1 4OX         0.0265
@<TRIPOS>BOND
     1    1    2 1  
     2   14    1 1  
     3    2    3 1  
     4    3    4 1  
     5    4    5 ar 
     6    4    6 ar 
     7    8    7 ar 
     8    8    9 ar 
     9   10    8 1  
    10   11   10 1  
    11   12   11 1  
    12   13   12 1  
    13   13   14 1  
    14    1   15 1  
    15    1   16 1  
    16    2   17 1  
    17    2   18 1  
    18    3   19 1  
    19    3   20 1  
    20   10   21 1  
    21   10   22 1  
    22   11   23 1  
    23   11   24 1  
    24   12   25 1  
    25   12   26 1  
    26   13   27 1  
    27   13   28 1  
    28   14   29 1  
    29   14   30 1  
@<TRIPOS>SUBSTRUCTURE
     1 4OX         1

