### 
### Created by X-TOOL on Mon Sep 10 21:12:49 2018
### 

@<TRIPOS>MOLECULE
1l7x_ligand
   24    25     1     0     0
SMALL
GAST_HUCK


@<TRIPOS>ATOM
      1 N1         38.4150  -58.1290  101.3380 N.am      1 CFF        -0.1740
      2 C2         37.1970  -57.8480  102.2260 C.2       1 CFF         0.3177
      3 C10        39.7250  -57.7790  101.9580 C.3       1 CFF         0.0477
      4 C6         38.3750  -58.6650  100.0580 C.2       1 CFF         0.2297
      5 N3         36.0530  -58.1770  101.6350 N.am      1 CFF        -0.2025
      6 O11        37.3970  -57.3820  103.3120 O.2       1 CFF        -0.3873
      7 C12        34.7770  -57.9510  102.4020 C.3       1 CFF         0.0446
      8 C4         35.9590  -58.7380  100.3080 C.2       1 CFF         0.1377
      9 C5         37.0660  -58.9750   99.5480 C.2       1 CFF         0.1624
     10 N9         34.8650  -59.0830   99.6810 N.2       1 CFF        -0.2859
     11 O13        39.4730  -58.8510   99.4210 O.2       1 CFF        -0.4007
     12 N7         36.5970  -59.5200   98.3420 N.pl3     1 CFF        -0.2541
     13 C8         35.2690  -59.5550   98.4940 C.2       1 CFF         0.0975
     14 C14        37.3910  -59.9520   97.1840 C.3       1 CFF         0.0424
     15 H1         39.5564  -57.3711  102.9656 H         1 CFF         0.0539
     16 H2         40.2346  -57.0265  101.3383 H         1 CFF         0.0539
     17 H3         40.3504  -58.6812  102.0276 H         1 CFF         0.0539
     18 H4         35.0125  -57.5222  103.3872 H         1 CFF         0.0548
     19 H5         34.2543  -58.9097  102.5348 H         1 CFF         0.0548
     20 H6         34.1321  -57.2559  101.8443 H         1 CFF         0.0548
     21 H7         34.5866  -59.9285   97.7319 H         1 CFF         0.1263
     22 H8         38.4588  -59.7851   97.3888 H         1 CFF         0.0575
     23 H9         37.0926  -59.3724   96.2980 H         1 CFF         0.0575
     24 H10        37.2162  -61.0220   96.9982 H         1 CFF         0.0575
@<TRIPOS>BOND
     1    1    2 am 
     2    1    3 1  
     3    1    4 am 
     4    2    5 am 
     5    2    6 2  
     6    4    9 1  
     7    4   11 2  
     8    5    7 1  
     9    5    8 1  
    10    8    9 2  
    11    8   10 1  
    12    9   12 1  
    13   10   13 2  
    14   12   13 1  
    15   12   14 1  
    16    3   15 1  
    17    3   16 1  
    18    3   17 1  
    19    7   18 1  
    20    7   19 1  
    21    7   20 1  
    22   13   21 1  
    23   14   22 1  
    24   14   23 1  
    25   14   24 1  
@<TRIPOS>SUBSTRUCTURE
     1 CFF         1

