### 
### Created by X-TOOL on Mon Sep 10 21:12:49 2018
### 

@<TRIPOS>MOLECULE
1l8g_ligand
   43    46     1     0     0
SMALL
GAST_HUCK


@<TRIPOS>ATOM
      1 O1         13.8920   44.1980   17.3490 O.3       1 DBD        -0.3647
      2 C2         13.8160   45.0440   18.4860 C.3       1 DBD         0.1150
      3 C3         12.3870   45.3720   18.7680 C.2       1 DBD         0.0204
      4 C4         11.3530   45.0390   17.9810 C.2       1 DBD        -0.0721
      5 C5         11.5430   44.2110   16.7580 C.3       1 DBD        -0.0185
      6 C6         12.7840   43.3770   17.0760 C.3       1 DBD         0.0540
      7 S7         11.9370   46.0750   20.2580 S.3       1 DBD        -0.0208
      8 C8         10.2880   45.9120   19.7710 C.2       1 DBD         0.1339
      9 C9         10.0470   45.4020   18.5570 C.2       1 DBD         0.0006
     10 C10         8.6630   45.2970   17.9530 C.2       1 DBD         0.0260
     11 O11         8.5370   45.2500   16.7650 O.co2     1 DBD        -0.5769
     12 O12         7.5520   45.2430   18.6900 O.co2     1 DBD        -0.5769
     13 N13         9.2060   46.3660   20.6110 N.am      1 DBD        -0.2107
     14 C14         9.3180   47.0700   21.7370 C.2       1 DBD         0.2766
     15 C15         7.9750   47.4890   22.3640 C.2       1 DBD         0.1508
     16 O16         7.7770   48.5280   22.9140 O.co2     1 DBD        -0.5455
     17 O17         7.0080   46.5590   22.4130 O.co2     1 DBD        -0.5455
     18 O18        10.3750   47.3510   22.3230 O.2       1 DBD        -0.3509
     19 C19        14.6380   46.2120   18.0600 C.3       1 DBD         0.1128
     20 O20        15.8770   45.6790   17.6670 O.3       1 DBD        -0.2762
     21 C21        16.7130   45.2310   18.6980 C.2       1 DBD         0.1909
     22 C22        17.9490   44.5430   18.4230 C.ar      1 DBD         0.0765
     23 C23        18.6350   44.3150   19.6090 C.ar      1 DBD         0.1224
     24 S24        17.7800   44.7840   21.0230 S.o2      1 DBD         0.0606
     25 N25        16.6010   45.2910   20.0500 N.2       1 DBD        -0.1945
     26 C26        18.4620   44.2680   17.1770 C.ar      1 DBD        -0.0368
     27 C27        19.6700   43.5760   17.0860 C.ar      1 DBD        -0.0532
     28 C28        20.3960   43.3130   18.2530 C.ar      1 DBD        -0.0531
     29 C29        19.8710   43.6200   19.5010 C.ar      1 DBD        -0.0275
     30 O30        18.4200   45.8790   21.6250 O.2       1 DBD        -0.1578
     31 O31        17.3760   43.6030   21.7820 O.2       1 DBD        -0.1578
     32 H1         14.2567   44.5665   19.3736 H         1 DBD         0.0733
     33 H2         11.7125   44.8464   15.8762 H         1 DBD         0.0370
     34 H3         10.6704   43.5648   16.5820 H         1 DBD         0.0370
     35 H4         12.5781   42.7482   17.9548 H         1 DBD         0.0576
     36 H5         13.0164   42.7361   16.2128 H         1 DBD         0.0576
     37 H6          8.2795   46.1286   20.3190 H         1 DBD         0.2352
     38 H7         14.7701   46.9141   18.8964 H         1 DBD         0.0675
     39 H8         14.1589   46.7317   17.2172 H         1 DBD         0.0675
     40 H9         17.9375   44.5831   16.2822 H         1 DBD         0.0694
     41 H10        20.0418   43.2460   16.1227 H         1 DBD         0.0636
     42 H11        21.3801   42.8642   18.1817 H         1 DBD         0.0675
     43 H12        20.4059   43.3285   20.3976 H         1 DBD         0.0656
@<TRIPOS>BOND
     1    1    2 1  
     2    1    6 1  
     3    2    3 1  
     4    2   19 1  
     5    3    4 2  
     6    3    7 1  
     7    4    5 1  
     8    4    9 1  
     9    5    6 1  
    10    7    8 1  
    11    8    9 2  
    12    8   13 1  
    13    9   10 1  
    14   10   11 ar 
    15   10   12 ar 
    16   13   14 am 
    17   14   15 1  
    18   14   18 2  
    19   15   16 ar 
    20   15   17 ar 
    21   19   20 1  
    22   20   21 1  
    23   21   22 1  
    24   21   25 2  
    25   22   23 ar 
    26   22   26 ar 
    27   23   24 1  
    28   23   29 ar 
    29   24   25 1  
    30   24   30 2  
    31   24   31 2  
    32   26   27 ar 
    33   27   28 ar 
    34   28   29 ar 
    35    2   32 1  
    36    5   33 1  
    37    5   34 1  
    38    6   35 1  
    39    6   36 1  
    40   13   37 1  
    41   19   38 1  
    42   19   39 1  
    43   26   40 1  
    44   27   41 1  
    45   28   42 1  
    46   29   43 1  
@<TRIPOS>SUBSTRUCTURE
     1 DBD         1

