### 
### Created by X-TOOL on Mon Sep 10 21:12:45 2018
### 

@<TRIPOS>MOLECULE
1laf_ligand
   27    26     1     0     0
SMALL
GAST_HUCK


@<TRIPOS>ATOM
      1 N          18.7560   58.1550   45.9180 N.4       1 ARG         0.2327
      2 CA         18.9000   57.4290   47.1380 C.3       1 ARG         0.0284
      3 C          18.2750   58.3260   48.2220 C.2       1 ARG         0.0844
      4 O          18.1210   57.8770   49.3480 O.co2     1 ARG        -0.5643
      5 CB         20.3840   57.1610   47.3900 C.3       1 ARG         0.0055
      6 CG         21.2940   58.3560   47.1410 C.3       1 ARG        -0.0131
      7 CD         22.6150   58.0920   47.7820 C.3       1 ARG         0.0628
      8 NE         23.5380   59.1580   47.4680 N.pl3     1 ARG        -0.2723
      9 CZ         24.7770   59.1570   47.9720 C.cat     1 ARG         0.2882
     10 NH1        25.1580   58.2250   48.8030 N.pl3     1 ARG        -0.2849
     11 NH2        25.6620   60.1130   47.6930 N.pl3     1 ARG        -0.2849
     12 OXT        17.9170   59.4770   47.9200 O.co2     1 ARG        -0.5643
     13 H1         19.1485   57.6191   45.1598 H         1 ARG         0.2010
     14 H2         19.2398   59.0362   45.9922 H         1 ARG         0.2010
     15 H3         17.7781   58.3225   45.7401 H         1 ARG         0.2010
     16 H4         18.3619   56.4711   47.0856 H         1 ARG         0.1024
     17 H5         20.7025   56.3430   46.7272 H         1 ARG         0.0340
     18 H6         20.5037   56.8510   48.4386 H         1 ARG         0.0340
     19 H7         20.8450   59.2606   47.5771 H         1 ARG         0.0302
     20 H8         21.4296   58.4991   46.0588 H         1 ARG         0.0302
     21 H9         23.0178   57.1393   47.4076 H         1 ARG         0.0689
     22 H10        22.4853   58.0319   48.8727 H         1 ARG         0.0689
     23 H11        23.2392   59.9261   46.8502 H         1 ARG         0.2642
     24 H12        26.1147   58.2348   49.1845 H         1 ARG         0.2615
     25 H13        24.5019   57.4798   49.0772 H         1 ARG         0.2615
     26 H14        25.4123   60.8722   47.0433 H         1 ARG         0.2615
     27 H15        26.5959   60.0928   48.1270 H         1 ARG         0.2615
@<TRIPOS>BOND
     1    2    3 1  
     2    2    5 1  
     3    2    1 1  
     4    5    6 1  
     5    6    7 1  
     6    7    8 1  
     7    8    9 ar 
     8    9   10 ar 
     9    9   11 ar 
    10    3   12 ar 
    11    3    4 ar 
    12    1   13 1  
    13    1   14 1  
    14    1   15 1  
    15    2   16 1  
    16    5   17 1  
    17    5   18 1  
    18    6   19 1  
    19    6   20 1  
    20    7   21 1  
    21    7   22 1  
    22    8   23 1  
    23   10   24 1  
    24   10   25 1  
    25   11   26 1  
    26   11   27 1  
@<TRIPOS>SUBSTRUCTURE
     1 ARG         1

