### 
### Created by X-TOOL on Mon Sep 10 21:12:45 2018
### 

@<TRIPOS>MOLECULE
1lah_ligand
   22    21     1     0     0
SMALL
GAST_HUCK


@<TRIPOS>ATOM
      1 N          31.6610   30.0560   67.9460 N.4       1 ORN         0.2327
      2 CA         31.8960   28.7210   67.5140 C.3       1 ORN         0.0285
      3 C          31.2990   27.9130   68.6750 C.2       1 ORN         0.0844
      4 O          30.9390   28.4620   69.7170 O.co2     1 ORN        -0.5643
      5 CB         33.4100   28.4100   67.3660 C.3       1 ORN         0.0072
      6 CG         34.3690   28.8510   68.5040 C.3       1 ORN        -0.0060
      7 CD         35.5940   27.9370   68.5380 C.3       1 ORN        -0.0351
      8 NE         36.5720   28.3860   69.5370 N.4       1 ORN         0.2185
      9 OXT        31.1990   26.7110   68.5430 O.co2     1 ORN        -0.5643
     10 H1         32.0147   30.6997   67.2556 H         1 ORN         0.2010
     11 H2         32.1312   30.2129   68.8237 H         1 ORN         0.2010
     12 H3         30.6706   30.2014   68.0647 H         1 ORN         0.2010
     13 H4         31.3813   28.5114   66.5647 H         1 ORN         0.1024
     14 H5         33.7539   28.8997   66.4430 H         1 ORN         0.0340
     15 H6         33.5093   27.3195   67.2615 H         1 ORN         0.0340
     16 H7         33.8426   28.7908   69.4680 H         1 ORN         0.0320
     17 H8         34.6924   29.8873   68.3269 H         1 ORN         0.0320
     18 H9         36.0694   27.9392   67.5461 H         1 ORN         0.0813
     19 H10        35.2712   26.9155   68.7877 H         1 ORN         0.0813
     20 H11        37.3651   27.7639   69.5340 H         1 ORN         0.1994
     21 H12        36.1454   28.3821   70.4503 H         1 ORN         0.1994
     22 H13        36.8769   29.3202   69.3125 H         1 ORN         0.1994
@<TRIPOS>BOND
     1    2    5 1  
     2    2    3 1  
     3    2    1 1  
     4    3    9 ar 
     5    3    4 ar 
     6    5    6 1  
     7    6    7 1  
     8    7    8 1  
     9    1   10 1  
    10    1   11 1  
    11    1   12 1  
    12    2   13 1  
    13    5   14 1  
    14    5   15 1  
    15    6   16 1  
    16    6   17 1  
    17    7   18 1  
    18    7   19 1  
    19    8   20 1  
    20    8   21 1  
    21    8   22 1  
@<TRIPOS>SUBSTRUCTURE
     1 ORN         1

