### 
### Created by X-TOOL on Mon Sep 10 21:12:45 2018
### 

@<TRIPOS>MOLECULE
1lan_ligand
   22    21     1     0     0
SMALL
GAST_HUCK


@<TRIPOS>ATOM
      1 N          62.4440   53.7100   16.4510 N.4       1 LEU         0.2327
      2 CA         63.3780   54.1260   17.5060 C.3       1 LEU         0.0286
      3 C          64.7770   53.5220   17.1890 C.2       1 LEU         0.0844
      4 O          65.1250   53.7250   15.8400 O.co2     1 LEU        -0.5643
      5 CB         62.9050   53.6110   18.8580 C.3       1 LEU         0.0047
      6 CG         61.5340   54.1360   19.2980 C.3       1 LEU        -0.0400
      7 CD1        61.1990   53.8870   20.7400 C.3       1 LEU        -0.0624
      8 CD2        61.2580   55.5770   18.9340 C.3       1 LEU        -0.0624
      9 OXT        64.6700   52.0940   17.2710 O.co2     1 LEU        -0.5643
     10 H1         61.5310   54.0929   16.6404 H         1 LEU         0.2010
     11 H2         62.3884   52.7038   16.4291 H         1 LEU         0.2010
     12 H3         62.7717   54.0479   15.5597 H         1 LEU         0.2010
     13 H4         63.4418   55.2238   17.5326 H         1 LEU         0.1024
     14 H5         63.6450   53.9076   19.6159 H         1 LEU         0.0341
     15 H6         62.8517   52.5135   18.8073 H         1 LEU         0.0341
     16 H7         60.8098   53.5427   18.7205 H         1 LEU         0.0298
     17 H8         60.2023   54.2967   20.9609 H         1 LEU         0.0232
     18 H9         61.9471   54.3774   21.3802 H         1 LEU         0.0232
     19 H10        61.2021   52.8045   20.9355 H         1 LEU         0.0232
     20 H11        61.5084   55.7423   17.8757 H         1 LEU         0.0232
     21 H12        61.8716   56.2382   19.5635 H         1 LEU         0.0232
     22 H13        60.1932   55.7991   19.0978 H         1 LEU         0.0232
@<TRIPOS>BOND
     1    2    3 1  
     2    2    5 1  
     3    2    1 1  
     4    5    6 1  
     5    6    8 1  
     6    6    7 1  
     7    3    9 ar 
     8    3    4 ar 
     9    1   10 1  
    10    1   11 1  
    11    1   12 1  
    12    2   13 1  
    13    5   14 1  
    14    5   15 1  
    15    6   16 1  
    16    7   17 1  
    17    7   18 1  
    18    7   19 1  
    19    8   20 1  
    20    8   21 1  
    21    8   22 1  
@<TRIPOS>SUBSTRUCTURE
     1 LEU         1

