### 
### Created by X-TOOL on Sun Sep  9 21:50:03 2018
### 

@<TRIPOS>MOLECULE
1lbk_ligand
   36    35     1     0     0
SMALL
GAST_HUCK


@<TRIPOS>ATOM
      1 N1          6.6970   38.3320   -1.7540 N.4       1 NON         0.2328
      2 CA1         7.9120   38.3730   -2.6060 C.3       1 NON         0.0304
      3 C1          7.6830   39.3440   -3.7690 C.2       1 NON         0.0846
      4 O11         8.6710   39.9450   -4.2450 O.co2     1 NON        -0.5643
      5 O12         6.5200   39.4980   -4.1950 O.co2     1 NON        -0.5643
      6 CB1         8.2190   36.9670   -3.1250 C.3       1 NON         0.0193
      7 CG1         9.6230   36.8110   -3.7290 C.3       1 NON         0.0441
      8 CD1         9.9330   35.4020   -4.2200 C.2       1 NON         0.1785
      9 OE1         9.1050   34.4780   -4.1250 O.2       1 NON        -0.3969
     10 N2         11.1530   35.2390   -4.7400 N.am      1 NON        -0.2648
     11 CA2        11.6350   33.9500   -5.2420 C.3       1 NON         0.1395
     12 C2         13.0820   33.7360   -4.7980 C.2       1 NON         0.2039
     13 O2         13.8390   34.7000   -4.6280 O.2       1 NON        -0.3944
     14 CB2        11.5690   33.8910   -6.7800 C.3       1 NON         0.0311
     15 SG2        11.4270   32.1720   -7.4050 S.3       1 NON        -0.1735
     16 N3         13.4440   32.4620   -4.6170 N.am      1 NON        -0.2722
     17 CA3        14.7900   32.1000   -4.1960 C.3       1 NON         0.0833
     18 C3         14.9210   31.6480   -2.7640 C.2       1 NON         0.0570
     19 O31        15.9460   31.0120   -2.4420 O.co2     1 NON        -0.5669
     20 O32        14.0040   31.9320   -1.9640 O.co2     1 NON        -0.5669
     21 H1          6.8452   37.6937   -0.9880 H         1 NON         0.2010
     22 H2          5.9115   38.0206   -2.3036 H         1 NON         0.2010
     23 H3          6.5093   39.2537   -1.3918 H         1 NON         0.2010
     24 H4          8.7638   38.7267   -2.0066 H         1 NON         0.1026
     25 H5          7.4802   36.7166   -3.9005 H         1 NON         0.0363
     26 H6          8.1239   36.2614   -2.2865 H         1 NON         0.0363
     27 H7         10.3623   37.0799   -2.9601 H         1 NON         0.0505
     28 H8          9.7120   37.5015   -4.5806 H         1 NON         0.0505
     29 H9         11.7626   36.0302   -4.7885 H         1 NON         0.1883
     30 H10        11.0055   33.1493   -4.8265 H         1 NON         0.0808
     31 H11        12.4841   34.3424   -7.1910 H         1 NON         0.0422
     32 H12        10.6933   34.4641   -7.1188 H         1 NON         0.0422
     33 H13        11.3872   32.1841   -8.4122 H         1 NON         0.1019
     34 H14        12.7724   31.7382   -4.7750 H         1 NON         0.1873
     35 H15        15.4367   32.9789   -4.3347 H         1 NON         0.0689
     36 H16        15.1393   31.2820   -4.8431 H         1 NON         0.0689
@<TRIPOS>BOND
     1    1    2 1  
     2    2    3 1  
     3    2    6 1  
     4    3    4 ar 
     5    3    5 ar 
     6    6    7 1  
     7    7    8 1  
     8    8    9 2  
     9    8   10 am 
    10   10   11 1  
    11   11   12 1  
    12   11   14 1  
    13   12   13 2  
    14   12   16 am 
    15   14   15 1  
    16   16   17 1  
    17   17   18 1  
    18   18   19 ar 
    19   18   20 ar 
    20    1   21 1  
    21    1   22 1  
    22    1   23 1  
    23    2   24 1  
    24    6   25 1  
    25    6   26 1  
    26    7   27 1  
    27    7   28 1  
    28   10   29 1  
    29   11   30 1  
    30   14   31 1  
    31   14   32 1  
    32   15   33 1  
    33   16   34 1  
    34   17   35 1  
    35   17   36 1  
@<TRIPOS>SUBSTRUCTURE
     1 NON         1

