### 
### Created by X-TOOL on Mon Sep 10 21:12:49 2018
### 

@<TRIPOS>MOLECULE
1ld7_ligand
   58    63     1     0     0
SMALL
GAST_HUCK


@<TRIPOS>ATOM
      1 C          15.4840  134.7230   -3.5960 C.ar      1 U66         0.0031
      2 C1         15.8530  136.0910   -3.8710 C.ar      1 U66         0.0787
      3 C2         14.1660  134.2280   -3.9540 C.ar      1 U66        -0.0374
      4 C3         16.3520  133.8080   -2.9790 C.ar      1 U66        -0.0236
      5 N          17.1620  136.6060   -3.5460 N.am      1 U66        -0.2114
      6 C4         14.8920  136.9410   -4.4960 C.ar      1 U66        -0.0466
      7 C5         13.7990  132.8670   -3.6870 C.ar      1 U66        -0.0623
      8 C6         13.2420  135.1050   -4.5740 C.ar      1 U66        -0.0784
      9 C7         16.0150  132.4470   -2.7110 C.ar      1 U66         0.1173
     10 C8         17.5370  137.2590   -2.3550 C.2       1 U66         0.2577
     11 C9         18.2950  136.4860   -4.4480 C.3       1 U66         0.0651
     12 C10        13.6000  136.4490   -4.8400 C.ar      1 U66        -0.0845
     13 C11        14.7260  131.9730   -3.0710 C.ar      1 U66        -0.0267
     14 O          16.9350  131.5260   -2.1370 O.3       1 U66        -0.2519
     15 C12        19.0690  137.4730   -2.3930 C.3       1 U66         0.0760
     16 O13        16.8270  137.5100   -1.4000 O.2       1 U66        -0.3767
     17 C14        19.4870  136.4930   -3.5110 C.3       1 U66         0.0345
     18 C15        18.3230  131.8620   -2.1810 C.ar      1 U66         0.1461
     19 N16        19.7250  137.1780   -1.0840 N.4       1 U66         0.2481
     20 C17        19.1080  132.0530   -3.3940 C.ar      1 U66         0.1211
     21 C18        18.9550  132.0180   -0.9140 C.ar      1 U66        -0.0126
     22 C19        19.4420  135.8650   -0.4440 C.3       1 U66        -0.0203
     23 C20        20.4770  132.4050   -3.2740 C.ar      1 U66        -0.0402
     24 C21        18.5190  131.8940   -4.7040 C.1       1 U66         0.0851
     25 C22        20.3430  132.3640   -0.8160 C.ar      1 U66        -0.0109
     26 C23        20.2050  135.6780    0.8550 C.3       1 U66         0.0428
     27 C24        21.0850  132.5610   -2.0050 C.ar      1 U66        -0.0560
     28 N25        17.9820  131.7600   -5.7230 N.1       1 U66        -0.3437
     29 C26        21.0630  132.5310    0.5020 C.3       1 U66         0.0936
     30 C27        19.8860  134.4810    1.6960 C.2       1 U66         0.0618
     31 N28        20.2520  133.1600    1.5410 N.pl3     1 U66        -0.2355
     32 C29        19.1280  134.4720    2.8420 C.2       1 U66        -0.0272
     33 C30        19.7040  132.4560    2.5870 C.2       1 U66         0.0921
     34 NZ         19.0090  133.2280    3.4020 N.2       1 U66        -0.3435
     35 H1         17.3368  134.1558   -2.6888 H         1 U66         0.0526
     36 H2         15.1479  137.9721   -4.7113 H         1 U66         0.0432
     37 H3         12.8096  132.5146   -3.9552 H         1 U66         0.0583
     38 H4         12.2562  134.7454   -4.8461 H         1 U66         0.0435
     39 H5         18.3362  137.3362   -5.1447 H         1 U66         0.0597
     40 H6         18.2473  135.5466   -5.0183 H         1 U66         0.0597
     41 H7         12.8826  137.1113   -5.3109 H         1 U66         0.0538
     42 H8         14.4485  130.9427   -2.8800 H         1 U66         0.0590
     43 H9         19.3093  138.5084   -2.6762 H         1 U66         0.1106
     44 H10        20.3900  136.8499   -4.0279 H         1 U66         0.0371
     45 H11        19.6710  135.4882   -3.1030 H         1 U66         0.0371
     46 H12        19.4389  137.8955   -0.4364 H         1 U66         0.2037
     47 H13        20.7211  137.2332   -1.2282 H         1 U66         0.2037
     48 H14        18.3768  131.8727   -0.0086 H         1 U66         0.0514
     49 H15        19.7287  135.0634   -1.1406 H         1 U66         0.0838
     50 H16        18.3644  135.7997   -0.2332 H         1 U66         0.0838
     51 H17        21.0681  132.5572   -4.1698 H         1 U66         0.0675
     52 H18        20.0208  136.5693    1.4728 H         1 U66         0.0496
     53 H19        21.2737  135.6226    0.6006 H         1 U66         0.0496
     54 H20        22.1320  132.8348   -1.9433 H         1 U66         0.0502
     55 H21        21.9545  133.1530    0.3338 H         1 U66         0.0803
     56 H22        21.3713  131.5367    0.8572 H         1 U66         0.0803
     57 H23        18.6679  135.3648    3.2628 H         1 U66         0.0324
     58 H24        19.8290  131.3833    2.7274 H         1 U66         0.1152
@<TRIPOS>BOND
     1    1    2 ar 
     2    1    3 ar 
     3    1    4 ar 
     4    2    5 1  
     5    2    6 ar 
     6    3    7 ar 
     7    3    8 ar 
     8    4    9 ar 
     9    5   10 am 
    10    5   11 1  
    11    6   12 ar 
    12    7   13 ar 
    13    8   12 ar 
    14    9   13 ar 
    15    9   14 1  
    16   10   15 1  
    17   10   16 2  
    18   11   17 1  
    19   14   18 1  
    20   15   17 1  
    21   15   19 1  
    22   18   20 ar 
    23   18   21 ar 
    24   19   22 1  
    25   20   23 ar 
    26   20   24 1  
    27   21   25 ar 
    28   22   26 1  
    29   23   27 ar 
    30   24   28 3  
    31   25   27 ar 
    32   25   29 1  
    33   26   30 1  
    34   29   31 1  
    35   30   31 1  
    36   30   32 2  
    37   31   33 1  
    38   32   34 1  
    39   33   34 2  
    40    4   35 1  
    41    6   36 1  
    42    7   37 1  
    43    8   38 1  
    44   11   39 1  
    45   11   40 1  
    46   12   41 1  
    47   13   42 1  
    48   15   43 1  
    49   17   44 1  
    50   17   45 1  
    51   19   46 1  
    52   19   47 1  
    53   21   48 1  
    54   22   49 1  
    55   22   50 1  
    56   23   51 1  
    57   26   52 1  
    58   26   53 1  
    59   27   54 1  
    60   29   55 1  
    61   29   56 1  
    62   32   57 1  
    63   33   58 1  
@<TRIPOS>SUBSTRUCTURE
     1 U66         1

