### 
### Created by X-TOOL on Mon Sep 10 21:12:49 2018
### 

@<TRIPOS>MOLECULE
1ld8_ligand
   55    60     1     0     0
SMALL
GAST_HUCK


@<TRIPOS>ATOM
      1 C1         15.2930  134.4200   -3.0620 C.ar      1 U49         0.0031
      2 C2         15.5770  135.8030   -2.8820 C.ar      1 U49         0.0787
      3 C3         14.1870  134.0060   -3.8990 C.ar      1 U49        -0.0374
      4 C4         16.0620  133.4170   -2.4560 C.ar      1 U49        -0.0236
      5 N5         16.6910  136.1060   -2.0350 N.am      1 U49        -0.2114
      6 C6         14.7570  136.7860   -3.5420 C.ar      1 U49        -0.0466
      7 C7         13.9130  132.6170   -4.0660 C.ar      1 U49        -0.0623
      8 C8         13.3880  134.9980   -4.5460 C.ar      1 U49        -0.0784
      9 C9         15.8180  132.0450   -2.6250 C.ar      1 U49         0.1173
     10 C10        17.9770  136.5960   -2.5700 C.3       1 U49         0.0651
     11 C11        16.6730  136.1110   -0.6310 C.2       1 U49         0.2577
     12 C12        13.6750  136.3790   -4.3680 C.ar      1 U49        -0.0845
     13 C13        14.7230  131.6340   -3.4280 C.ar      1 U49        -0.0267
     14 O14        16.7140  131.0540   -2.1320 O.3       1 U49        -0.2519
     15 C15        18.6690  137.2660   -1.3740 C.3       1 U49         0.0345
     16 C17        18.0900  136.3700   -0.2800 C.3       1 U49         0.0774
     17 C18        18.0930  131.4400   -2.1740 C.ar      1 U49         0.1461
     18 C20        18.8310  131.6820   -3.3830 C.ar      1 U49         0.1211
     19 C21        18.7330  131.5860   -0.9240 C.ar      1 U49        -0.0126
     20 C22        19.6380  135.0250    0.7280 C.3       1 U49         0.0241
     21 C23        20.1920  132.0750   -3.3000 C.ar      1 U49        -0.0402
     22 C24        18.1740  131.5160   -4.6580 C.1       1 U49         0.0851
     23 C25        20.1070  131.9730   -0.8300 C.ar      1 U49        -0.0109
     24 C26        19.4460  133.9210    1.7070 C.2       1 U49         0.1012
     25 C27        20.8310  132.2230   -2.0320 C.ar      1 U49        -0.0560
     26 N28        17.5810  131.3730   -5.6270 N.1       1 U49        -0.3437
     27 C29        20.8290  132.1280    0.5050 C.3       1 U49         0.0938
     28 N30        19.9820  132.6550    1.5820 N.pl3     1 U49        -0.2307
     29 C31        18.7520  133.8810    2.8980 C.2       1 U49        -0.0222
     30 C32        19.5970  131.9410    2.6740 C.2       1 U49         0.0923
     31 N33        18.8490  132.6640    3.4890 N.2       1 U49        -0.3433
     32 O39        15.7570  135.9660    0.1240 O.2       1 U49        -0.3767
     33 N54        18.6780  136.0770    0.9670 N.4       1 U49         0.2597
     34 H1         16.8893  133.7168   -1.8230 H         1 U49         0.0526
     35 H2         14.9663  137.8411   -3.4079 H         1 U49         0.0432
     36 H3         13.0794  132.3055   -4.6850 H         1 U49         0.0583
     37 H4         12.5589  134.6962   -5.1757 H         1 U49         0.0435
     38 H5         17.8088  137.3234   -3.3778 H         1 U49         0.0597
     39 H6         18.5827  135.7599   -2.9497 H         1 U49         0.0597
     40 H7         13.0654  137.1250   -4.8649 H         1 U49         0.0538
     41 H8         14.5043  130.5799   -3.5551 H         1 U49         0.0590
     42 H9         18.3719  138.3183   -1.2541 H         1 U49         0.0371
     43 H10        19.7653  137.1990   -1.4333 H         1 U49         0.0371
     44 H11        18.4733  135.4344   -0.7132 H         1 U49         0.1106
     45 H12        18.1710  131.4008   -0.0157 H         1 U49         0.0514
     46 H13        19.5024  134.6343   -0.2913 H         1 U49         0.0997
     47 H14        20.6550  135.4307    0.8329 H         1 U49         0.0997
     48 H15        20.7521  132.2647   -4.2085 H         1 U49         0.0675
     49 H16        21.8705  132.5266   -1.9832 H         1 U49         0.0502
     50 H17        21.6760  132.8153    0.3629 H         1 U49         0.0803
     51 H18        21.2052  131.1409    0.8119 H         1 U49         0.0803
     52 H19        18.1960  134.7209    3.3120 H         1 U49         0.0326
     53 H20        19.8711  130.9026    2.8542 H         1 U49         0.1152
     54 H21        17.9753  135.7660    1.6193 H         1 U49         0.2051
     55 H22        19.1402  136.8937    1.3350 H         1 U49         0.2051
@<TRIPOS>BOND
     1    2    1 ar 
     2    1    3 ar 
     3    1    4 ar 
     4    5    2 1  
     5    2    6 ar 
     6    3    7 ar 
     7    3    8 ar 
     8    4    9 ar 
     9   10    5 1  
    10   11    5 am 
    11    6   12 ar 
    12    7   13 ar 
    13   12    8 ar 
    14    9   13 ar 
    15    9   14 1  
    16   15   10 1  
    17   16   11 1  
    18   11   32 2  
    19   14   17 1  
    20   16   15 1  
    21   33   16 1  
    22   17   18 ar 
    23   17   19 ar 
    24   18   21 ar 
    25   18   22 1  
    26   19   23 ar 
    27   20   24 1  
    28   20   33 1  
    29   21   25 ar 
    30   22   26 3  
    31   23   25 ar 
    32   23   27 1  
    33   24   28 1  
    34   24   29 2  
    35   27   28 1  
    36   28   30 1  
    37   29   31 1  
    38   30   31 2  
    39    4   34 1  
    40    6   35 1  
    41    7   36 1  
    42    8   37 1  
    43   10   38 1  
    44   10   39 1  
    45   12   40 1  
    46   13   41 1  
    47   15   42 1  
    48   15   43 1  
    49   16   44 1  
    50   19   45 1  
    51   20   46 1  
    52   20   47 1  
    53   21   48 1  
    54   25   49 1  
    55   27   50 1  
    56   27   51 1  
    57   29   52 1  
    58   30   53 1  
    59   33   54 1  
    60   33   55 1  
@<TRIPOS>SUBSTRUCTURE
     1 U49         1

