### 
### Created by X-TOOL on Mon Sep 10 21:12:49 2018
### 

@<TRIPOS>MOLECULE
1lee_ligand
   80    82     1     0     0
SMALL
GAST_HUCK


@<TRIPOS>ATOM
      1 C          34.0950   28.4740    9.2510 C.ar      1 R36        -0.0230
      2 C8         34.3440   29.6540    9.9610 C.ar      1 R36         0.0966
      3 C9         35.6700   30.1450   10.0000 C.ar      1 R36        -0.0230
      4 C10        36.6900   29.4490    9.3450 C.ar      1 R36        -0.0759
      5 C13        36.4230   28.2950    8.6650 C.ar      1 R36        -0.0862
      6 C14        35.1390   27.8040    8.6050 C.ar      1 R36        -0.0759
      7 C3         35.9920   31.4460   10.7050 C.3       1 R36        -0.0348
      8 C2         32.6900   27.9160    9.1680 C.3       1 R36        -0.0348
      9 C16        30.4620   37.4970   14.5320 C.ar      1 R36         0.0381
     10 C26        30.7470   37.5550   15.9060 C.ar      1 R36        -0.0553
     11 C27        30.0500   38.4330   16.7780 C.ar      1 R36        -0.0680
     12 C28        29.0720   39.2520   16.2910 C.ar      1 R36        -0.0404
     13 C29        28.7540   39.2260   14.9240 C.ar      1 R36         0.0407
     14 N1         27.7520   40.1680   14.4100 N.pl3     1 R36        -0.3362
     15 C30        29.4480   38.3490   14.0450 C.ar      1 R36        -0.0250
     16 O1         33.2710   30.3040   10.5940 O.3       1 R36        -0.3054
     17 C34        32.6720   31.4260    9.9720 C.3       1 R36         0.1556
     18 C25        31.7060   32.2430   10.8660 C.2       1 R36         0.2068
     19 O26        31.1210   33.2530   10.4300 O.2       1 R36        -0.3941
     20 N16        31.5320   31.8190   12.1100 N.am      1 R36        -0.2772
     21 C15        31.3210   32.5830   14.4250 C.3       1 R36         0.0820
     22 O14        31.7040   31.2640   14.7950 O.3       1 R36        -0.3893
     23 C12        32.6210   33.3030   14.3480 C.3       1 R36        -0.0015
     24 C4         32.6670   34.6160   13.6150 C.3       1 R36         0.0442
     25 C5         34.1190   35.0760   13.4250 C.3       1 R36        -0.0275
     26 C6         35.0790   35.4250   14.5750 C.3       1 R36        -0.0446
     27 C11        36.2080   36.2070   13.9820 C.3       1 R36        -0.0626
     28 C7         35.6630   34.2190   15.2620 C.3       1 R36        -0.0626
     29 N3         31.8270   35.6120   14.2900 N.am      1 R36        -0.2831
     30 C1         31.2110   36.6220   13.6800 C.2       1 R36         0.2021
     31 O2         31.2920   36.8030   12.4580 O.2       1 R36        -0.3847
     32 C17        30.6620   32.5180   13.0290 C.3       1 R36         0.0774
     33 C18        29.3410   31.7830   13.1450 C.3       1 R36         0.0064
     34 C19        28.7250   31.4120   11.8400 C.ar      1 R36        -0.0408
     35 C20        27.9860   32.3400   11.1150 C.ar      1 R36        -0.0603
     36 C21        27.3330   31.9690    9.9180 C.ar      1 R36        -0.0686
     37 C22        27.4310   30.6580    9.4380 C.ar      1 R36        -0.0687
     38 C23        28.1760   29.7200   10.1440 C.ar      1 R36        -0.0686
     39 C24        28.8270   30.1130   11.3640 C.ar      1 R36        -0.0603
     40 H1         37.7045   29.8295    9.3771 H         1 R36         0.0471
     41 H2         37.2272   27.7629    8.1698 H         1 R36         0.0489
     42 H3         34.9355   26.8929    8.0540 H         1 R36         0.0471
     43 H4         35.0772   31.8518   11.1615 H         1 R36         0.0366
     44 H5         36.3903   32.1685    9.9775 H         1 R36         0.0366
     45 H6         36.7423   31.2627   11.4882 H         1 R36         0.0366
     46 H7         32.6973   26.9915    8.5720 H         1 R36         0.0366
     47 H8         32.0296   28.6548    8.6905 H         1 R36         0.0366
     48 H9         32.3223   27.6962   10.1811 H         1 R36         0.0366
     49 H10        31.5198   36.9123   16.3119 H         1 R36         0.0557
     50 H11        30.2953   38.4530   17.8337 H         1 R36         0.0594
     51 H12        28.5420   39.9213   16.9590 H         1 R36         0.0550
     52 H13        27.5061   40.1633   13.4098 H         1 R36         0.1718
     53 H14        27.2950   40.8336   15.0496 H         1 R36         0.1718
     54 H15        29.1955   38.3350   12.9909 H         1 R36         0.0565
     55 H16        32.1062   31.0685    9.0990 H         1 R36         0.0853
     56 H17        33.4758   32.0984    9.6378 H         1 R36         0.0853
     57 H18        32.0127   30.9984   12.4192 H         1 R36         0.1857
     58 H19        30.6414   33.0417   15.1583 H         1 R36         0.0619
     59 H20        32.1569   31.2894   15.6297 H         1 R36         0.2099
     60 H21        33.3375   32.6296   13.8550 H         1 R36         0.0313
     61 H22        32.9487   33.4948   15.3804 H         1 R36         0.0313
     62 H23        32.2420   34.4564   12.6131 H         1 R36         0.0556
     63 H24        34.0637   35.9802   12.8010 H         1 R36         0.0290
     64 H25        34.6131   34.2710   12.8612 H         1 R36         0.0290
     65 H26        34.5432   36.0339   15.3181 H         1 R36         0.0296
     66 H27        36.9217   36.4785   14.7738 H         1 R36         0.0232
     67 H28        35.8146   37.1213   13.5137 H         1 R36         0.0232
     68 H29        36.7180   35.5962   13.2225 H         1 R36         0.0232
     69 H30        34.8531   33.6235   15.7087 H         1 R36         0.0232
     70 H31        36.3557   34.5462   16.0513 H         1 R36         0.0232
     71 H32        36.2066   33.6062   14.5279 H         1 R36         0.0232
     72 H33        31.7089   35.5258   15.2793 H         1 R36         0.1848
     73 H34        30.4841   33.5382   12.6582 H         1 R36         0.0604
     74 H35        28.6347   32.4288   13.6873 H         1 R36         0.0449
     75 H36        29.5101   30.8606   13.7199 H         1 R36         0.0449
     76 H37        27.9098   33.3606   11.4723 H         1 R36         0.0557
     77 H38        26.7538   32.7028    9.3693 H         1 R36         0.0599
     78 H39        26.9284   30.3752    8.5201 H         1 R36         0.0559
     79 H40        28.2650   28.7034    9.7784 H         1 R36         0.0599
     80 H41        29.4057   29.3841   11.9198 H         1 R36         0.0557
@<TRIPOS>BOND
     1    1    8 1  
     2    1    6 ar 
     3    1    2 ar 
     4    2   16 1  
     5    2    3 ar 
     6    3    7 1  
     7    3    4 ar 
     8    4    5 ar 
     9    5    6 ar 
    10   16   17 1  
    11   17   18 1  
    12   18   20 am 
    13   18   19 2  
    14   20   32 1  
    15   32   33 1  
    16   32   21 1  
    17   21   23 1  
    18   21   22 1  
    19   23   24 1  
    20   24   29 1  
    21   24   25 1  
    22   25   26 1  
    23   26   28 1  
    24   26   27 1  
    25   29   30 am 
    26   30   31 2  
    27   30    9 1  
    28    9   15 ar 
    29    9   10 ar 
    30   10   11 ar 
    31   11   12 ar 
    32   12   13 ar 
    33   13   15 ar 
    34   13   14 1  
    35   33   34 1  
    36   34   39 ar 
    37   34   35 ar 
    38   35   36 ar 
    39   36   37 ar 
    40   37   38 ar 
    41   38   39 ar 
    42    4   40 1  
    43    5   41 1  
    44    6   42 1  
    45    7   43 1  
    46    7   44 1  
    47    7   45 1  
    48    8   46 1  
    49    8   47 1  
    50    8   48 1  
    51   10   49 1  
    52   11   50 1  
    53   12   51 1  
    54   14   52 1  
    55   14   53 1  
    56   15   54 1  
    57   17   55 1  
    58   17   56 1  
    59   20   57 1  
    60   21   58 1  
    61   22   59 1  
    62   23   60 1  
    63   23   61 1  
    64   24   62 1  
    65   25   63 1  
    66   25   64 1  
    67   26   65 1  
    68   27   66 1  
    69   27   67 1  
    70   27   68 1  
    71   28   69 1  
    72   28   70 1  
    73   28   71 1  
    74   29   72 1  
    75   32   73 1  
    76   33   74 1  
    77   33   75 1  
    78   35   76 1  
    79   36   77 1  
    80   37   78 1  
    81   38   79 1  
    82   39   80 1  
@<TRIPOS>SUBSTRUCTURE
     1 R36         1

