### 
### Created by X-TOOL on Mon Sep 10 21:12:49 2018
### 

@<TRIPOS>MOLECULE
1lev_ligand
   26    27     1     0     0
SMALL
GAST_HUCK


@<TRIPOS>ATOM
      1 O19         9.3360  -33.7580    6.1590 O.co2     1 CLI        -0.5689
      2 C16         8.2580  -33.1600    5.9410 C.2       1 CLI         0.0362
      3 O18         7.1440  -33.7300    6.4420 O.co2     1 CLI        -0.5689
      4 C12         8.0980  -31.8580    5.1190 C.3       1 CLI         0.0058
      5 C6          9.0700  -30.7220    5.3160 C.3       1 CLI        -0.0200
      6 C2          8.5720  -29.4500    4.6720 C.2       1 CLI        -0.0260
      7 C1          9.3440  -28.2070    4.5300 C.ar      1 CLI        -0.0008
      8 C5          7.3840  -29.1950    4.1100 C.2       1 CLI         0.0881
      9 C11         6.1790  -30.0400    3.9150 C.2       1 CLI         0.0765
     10 O14         6.0600  -31.2790    4.3500 O.co2     1 CLI        -0.5633
     11 O15         5.2050  -29.5040    3.3860 O.co2     1 CLI        -0.5633
     12 N7          7.3230  -27.9130    3.6460 N.pl3     1 CLI        -0.2794
     13 C3          8.5290  -27.2690    3.8940 C.ar      1 CLI         0.0638
     14 C8          8.9300  -25.9420    3.6580 C.ar      1 CLI        -0.0285
     15 C13        10.2190  -25.5980    4.0380 C.ar      1 CLI         0.0274
     16 CL17       10.7770  -23.9810    3.7890 Cl        1 CLI        -0.0784
     17 C9         11.0700  -26.5120    4.7050 C.ar      1 CLI        -0.0498
     18 C4         10.6110  -27.8050    4.9540 C.ar      1 CLI         0.0306
     19 CL10       11.6120  -28.9760    5.7510 Cl        1 CLI        -0.0765
     20 H1          7.0962  -31.4620    5.3418 H         1 CLI         0.0447
     21 H2          8.1521  -32.1428    4.0579 H         1 CLI         0.0447
     22 H3         10.0359  -30.9959    4.8664 H         1 CLI         0.0386
     23 H4          9.2033  -30.5484    6.3940 H         1 CLI         0.0386
     24 H5          6.5073  -27.4877    3.1826 H         1 CLI         0.2210
     25 H6          8.2625  -25.2210    3.2001 H         1 CLI         0.0553
     26 H7         12.0635  -26.2112    5.0174 H         1 CLI         0.0527
@<TRIPOS>BOND
     1    1    2 ar 
     2    2    3 ar 
     3    2    4 1  
     4    4    5 1  
     5    5    6 1  
     6    6    7 1  
     7    6    8 2  
     8    7   13 ar 
     9    7   18 ar 
    10    8    9 1  
    11    8   12 1  
    12    9   10 ar 
    13    9   11 ar 
    14   12   13 1  
    15   13   14 ar 
    16   14   15 ar 
    17   15   16 1  
    18   15   17 ar 
    19   17   18 ar 
    20   18   19 1  
    21    4   20 1  
    22    4   21 1  
    23    5   22 1  
    24    5   23 1  
    25   12   24 1  
    26   14   25 1  
    27   17   26 1  
@<TRIPOS>SUBSTRUCTURE
     1 CLI         1

