### 
### Created by X-TOOL on Mon Sep 10 21:12:49 2018
### 

@<TRIPOS>MOLECULE
1lf3_ligand
  104   110     1     0     0
SMALL
GAST_HUCK


@<TRIPOS>ATOM
      1 CA         16.4630    3.5060   26.2240 C.3       1 EH5         0.0785
      2 CB         16.6440    2.1420   25.5490 C.3       1 EH5         0.0064
      3 CG         17.4620    1.1940   26.3370 C.ar      1 EH5        -0.0408
      4 CD1        18.7850    1.5160   26.7320 C.ar      1 EH5        -0.0603
      5 CD2        16.9270   -0.0350   26.7130 C.ar      1 EH5        -0.0603
      6 CE1        19.5410    0.6120   27.4770 C.ar      1 EH5        -0.0686
      7 CE2        17.7030   -0.9480   27.4690 C.ar      1 EH5        -0.0686
      8 CZ         19.0050   -0.6170   27.8480 C.ar      1 EH5        -0.0687
      9 N2         15.8470    3.2740   27.4810 N.am      1 EH5        -0.2804
     10 C1         15.5730    4.4430   25.3760 C.3       1 EH5         0.1000
     11 CB1        15.1520    5.6260   26.2430 C.3       1 EH5         0.0623
     12 N1         15.2530    6.7580   25.3480 N.am      1 EH5        -0.2689
     13 O1         14.3600    3.7610   24.9360 O.3       1 EH5        -0.3873
     14 C3         13.9810    7.1610   24.7140 C.3       1 EH5         0.0419
     15 C4         12.8890    7.8540   25.4830 C.3       1 EH5        -0.0062
     16 C2         16.5070    7.3490   25.2200 C.2       1 EH5         0.1809
     17 C6         16.6400    8.5230   24.2760 C.3       1 EH5         0.0617
     18 O2         17.5090    6.9460   25.8470 O.2       1 EH5        -0.3968
     19 C7         18.0540    8.8160   23.8970 C.3       1 EH5         0.0731
     20 C5         16.3630    3.5190   28.6840 C.2       1 EH5         0.1924
     21 O3         17.5010    4.0060   28.9210 O.2       1 EH5        -0.3898
     22 C10        18.0360   14.0790   20.7740 C.ar      1 EH5        -0.0523
     23 C22        18.1650   12.6610   20.6020 C.ar      1 EH5        -0.0372
     24 C14        18.0910   11.8500   21.7750 C.ar      1 EH5         0.0732
     25 C18        17.9010   12.4110   23.0450 C.ar      1 EH5         0.0732
     26 C32        17.7690   13.8100   23.2520 C.ar      1 EH5        -0.0372
     27 C26        17.8360   14.6480   22.1080 C.ar      1 EH5        -0.0523
     28 C30        18.1660   10.4640   21.9540 C.2       1 EH5         0.2402
     29 N3         18.0300   10.1560   23.2990 N.am      1 EH5        -0.1821
     30 C9         17.8710   11.3790   23.9420 C.2       1 EH5         0.2402
     31 O7         17.7190   11.5270   25.1660 O.2       1 EH5        -0.3670
     32 O4         18.3340    9.6180   21.0330 O.2       1 EH5        -0.3670
     33 C11        13.5390    8.4290   27.8240 C.ar      1 EH5        -0.0800
     34 C23        14.0010    9.3490   28.8450 C.ar      1 EH5        -0.0478
     35 C15        14.2970   10.6790   28.4880 C.ar      1 EH5         0.1160
     36 C19        14.1440   11.1080   27.1360 C.ar      1 EH5         0.1170
     37 C33        13.6790   10.1710   26.1190 C.ar      1 EH5        -0.0396
     38 C27        13.3760    8.8300   26.4710 C.ar      1 EH5        -0.0607
     39 O5         14.7260   11.6960   29.2300 O.3       1 EH5        -0.2956
     40 C8         14.8470   12.7640   28.3590 C.3       1 EH5         0.1854
     41 O8         14.4950   12.4250   27.0710 O.3       1 EH5        -0.2927
     42 C12        13.7290    2.3970   31.7360 C.ar      1 EH5         0.1557
     43 C24        14.5570    1.4270   31.0820 C.ar      1 EH5         0.1174
     44 C16        15.4230    1.8130   30.0800 C.ar      1 EH5        -0.0323
     45 C20        15.4930    3.1690   29.6790 C.ar      1 EH5         0.0216
     46 C34        14.6670    4.1540   30.2950 C.ar      1 EH5        -0.0323
     47 C28        13.7780    3.7790   31.3220 C.ar      1 EH5         0.1174
     48 O10        13.1010    1.9350   32.8860 O.3       1 EH5        -0.3100
     49 O9         14.5910    0.0730   31.3870 O.3       1 EH5        -0.3270
     50 O6         13.0330    4.8670   31.8280 O.3       1 EH5        -0.3270
     51 C31        13.6030    5.9800   32.4780 C.3       1 EH5         0.0565
     52 C37        14.2230   -0.9430   30.4990 C.3       1 EH5         0.0565
     53 C36        14.0770    2.1030   34.0090 C.3       1 EH5         0.1004
     54 C13        18.5030    2.5280   34.4360 C.ar      1 EH5        -0.0687
     55 C25        17.8860    1.2940   34.6080 C.ar      1 EH5        -0.0685
     56 C17        16.4830    1.1740   34.4730 C.ar      1 EH5        -0.0578
     57 C21        15.6580    2.2760   34.1650 C.ar      1 EH5        -0.0135
     58 C35        16.3070    3.5460   33.9900 C.ar      1 EH5        -0.0578
     59 C29        17.7210    3.6710   34.1240 C.ar      1 EH5        -0.0685
     60 H1         17.4458    3.9780   26.3695 H         1 EH5         0.0604
     61 H2         17.1332    2.2978   24.5762 H         1 EH5         0.0449
     62 H3         15.6503    1.6969   25.3927 H         1 EH5         0.0449
     63 H4         19.2120    2.4724   26.4526 H         1 EH5         0.0557
     64 H5         15.9141   -0.2941   26.4266 H         1 EH5         0.0557
     65 H6         20.5529    0.8684   27.7690 H         1 EH5         0.0599
     66 H7         17.2844   -1.9064   27.7539 H         1 EH5         0.0599
     67 H8         19.5964   -1.3151   28.4294 H         1 EH5         0.0559
     68 H9         14.9262    2.8846   27.4614 H         1 EH5         0.1847
     69 H10        16.1386    4.7951   24.5007 H         1 EH5         0.0638
     70 H11        15.8286    5.7434   27.1023 H         1 EH5         0.0549
     71 H12        14.1202    5.5012   26.6031 H         1 EH5         0.0549
     72 H13        14.5951    3.0180   24.3927 H         1 EH5         0.2100
     73 H14        13.5349    6.2412   24.3079 H         1 EH5         0.0543
     74 H15        14.2495    7.8345   23.8868 H         1 EH5         0.0543
     75 H16        12.3014    7.0900   26.0130 H         1 EH5         0.0423
     76 H17        12.2428    8.3815   24.7659 H         1 EH5         0.0423
     77 H18        16.2172    9.4136   24.7640 H         1 EH5         0.0526
     78 H19        16.0715    8.3017   23.3607 H         1 EH5         0.0526
     79 H20        18.4179    8.0765   23.1686 H         1 EH5         0.0596
     80 H21        18.7009    8.8036   24.7866 H         1 EH5         0.0596
     81 H22        18.0869   14.7333   19.9112 H         1 EH5         0.0662
     82 H23        18.3126   12.2228   19.6216 H         1 EH5         0.0682
     83 H24        17.6229   14.2215   24.2442 H         1 EH5         0.0682
     84 H25        17.7380   15.7214   22.2235 H         1 EH5         0.0662
     85 H26        13.3115    7.4060   28.1010 H         1 EH5         0.0436
     86 H27        14.1172    9.0173   29.8705 H         1 EH5         0.0493
     87 H28        13.5647   10.4998   25.0924 H         1 EH5         0.0450
     88 H29        15.8919   13.1077   28.3622 H         1 EH5         0.0970
     89 H30        14.1921   13.5781   28.7030 H         1 EH5         0.0970
     90 H31        16.0529    1.0746   29.5973 H         1 EH5         0.0474
     91 H32        14.7226    5.1880   29.9745 H         1 EH5         0.0474
     92 H33        12.8071    6.6801   32.7721 H         1 EH5         0.0572
     93 H34        14.3018    6.4853   31.7951 H         1 EH5         0.0572
     94 H35        14.1449    5.6435   33.3741 H         1 EH5         0.0572
     95 H36        14.3429   -1.9201   30.9898 H         1 EH5         0.0572
     96 H37        14.8643   -0.8999   29.6064 H         1 EH5         0.0572
     97 H38        13.1723   -0.8081   30.2025 H         1 EH5         0.0572
     98 H39        13.8776    1.2146   34.6262 H         1 EH5         0.0772
     99 H40        13.6929    2.9982   34.5199 H         1 EH5         0.0772
    100 H41        19.5783    2.6171   34.5399 H         1 EH5         0.0559
    101 H42        18.4822    0.4207   34.8464 H         1 EH5         0.0599
    102 H43        16.0257    0.2009   34.6111 H         1 EH5         0.0557
    103 H44        15.7132    4.4214   33.7528 H         1 EH5         0.0557
    104 H45        18.1972    4.6353   33.9881 H         1 EH5         0.0599
@<TRIPOS>BOND
     1    1    2 1  
     2    9    1 1  
     3    1   10 1  
     4    2    3 1  
     5    3    4 ar 
     6    3    5 ar 
     7    4    6 ar 
     8    5    7 ar 
     9    6    8 ar 
    10    7    8 ar 
    11   20    9 am 
    12   10   11 1  
    13   10   13 1  
    14   11   12 1  
    15   12   14 1  
    16   12   16 am 
    17   14   15 1  
    18   15   38 1  
    19   16   17 1  
    20   16   18 2  
    21   17   19 1  
    22   19   29 1  
    23   20   21 2  
    24   45   20 1  
    25   23   22 ar 
    26   27   22 ar 
    27   24   23 ar 
    28   25   24 ar 
    29   28   24 1  
    30   25   26 ar 
    31   30   25 1  
    32   26   27 ar 
    33   29   28 am 
    34   28   32 2  
    35   29   30 am 
    36   30   31 2  
    37   33   34 ar 
    38   38   33 ar 
    39   34   35 ar 
    40   36   35 ar 
    41   35   39 1  
    42   37   36 ar 
    43   36   41 1  
    44   38   37 ar 
    45   40   39 1  
    46   41   40 1  
    47   42   43 ar 
    48   42   47 ar 
    49   48   42 1  
    50   43   44 ar 
    51   43   49 1  
    52   44   45 ar 
    53   46   45 ar 
    54   47   46 ar 
    55   47   50 1  
    56   53   48 1  
    57   49   52 1  
    58   50   51 1  
    59   57   53 1  
    60   55   54 ar 
    61   54   59 ar 
    62   56   55 ar 
    63   56   57 ar 
    64   57   58 ar 
    65   58   59 ar 
    66    1   60 1  
    67    2   61 1  
    68    2   62 1  
    69    4   63 1  
    70    5   64 1  
    71    6   65 1  
    72    7   66 1  
    73    8   67 1  
    74    9   68 1  
    75   10   69 1  
    76   11   70 1  
    77   11   71 1  
    78   13   72 1  
    79   14   73 1  
    80   14   74 1  
    81   15   75 1  
    82   15   76 1  
    83   17   77 1  
    84   17   78 1  
    85   19   79 1  
    86   19   80 1  
    87   22   81 1  
    88   23   82 1  
    89   26   83 1  
    90   27   84 1  
    91   33   85 1  
    92   34   86 1  
    93   37   87 1  
    94   40   88 1  
    95   40   89 1  
    96   44   90 1  
    97   46   91 1  
    98   51   92 1  
    99   51   93 1  
   100   51   94 1  
   101   52   95 1  
   102   52   96 1  
   103   52   97 1  
   104   53   98 1  
   105   53   99 1  
   106   54  100 1  
   107   55  101 1  
   108   56  102 1  
   109   58  103 1  
   110   59  104 1  
@<TRIPOS>SUBSTRUCTURE
     1 EH5         1

