### 
### Created by X-TOOL on Mon Sep 10 21:12:50 2018
### 

@<TRIPOS>MOLECULE
1lf9_ligand
   88    91     1     0     0
SMALL
GAST_HUCK


@<TRIPOS>ATOM
      1 C1A        38.9720   45.5220   32.6710 C.3       1 ACR         0.0141
      2 C2A        40.3550   45.1300   33.2820 C.3       1 ACR         0.1303
      3 C3A        40.9460   43.8720   32.5900 C.3       1 ACR         0.1215
      4 C4A        39.9780   42.5970   32.6900 C.3       1 ACR         0.1112
      5 C5A        38.4560   42.9740   32.7050 C.2       1 ACR        -0.0200
      6 C6A        37.4250   41.8500   32.7540 C.3       1 ACR         0.0719
      7 C7A        38.0160   44.3090   32.6830 C.2       1 ACR        -0.0543
      8 O2A        41.1950   46.2590   33.1940 O.3       1 ACR        -0.3821
      9 O3A        42.1850   43.5350   33.1630 O.3       1 ACR        -0.3843
     10 O4A        40.3270   41.7550   31.6080 O.3       1 ACR        -0.3780
     11 O6A        37.1730   41.4940   34.1240 O.3       1 ACR        -0.3839
     12 C1B        37.3070   49.5950   29.4660 C.3       1 ACR         0.1886
     13 C2B        38.4440   49.7870   30.4940 C.3       1 ACR         0.1370
     14 C3B        39.2840   48.4810   30.6370 C.3       1 ACR         0.1304
     15 C4B        38.3420   47.3430   31.0980 C.3       1 ACR         0.0341
     16 C5B        37.2100   47.1560   29.9780 C.3       1 ACR         0.1038
     17 C6B        36.1930   46.0830   30.3070 C.3       1 ACR        -0.0332
     18 N4B        39.1100   46.0700   31.2790 N.4       1 ACR         0.2433
     19 O2B        39.2470   50.8950   30.0820 O.3       1 ACR        -0.3840
     20 O3B        40.3230   48.7140   31.5970 O.3       1 ACR        -0.3834
     21 O5B        36.4630   48.4450   29.8120 O.3       1 ACR        -0.3401
     22 C1C        36.3480   50.1490   24.2130 C.3       1 ACR         0.1884
     23 C2C        35.3100   50.3710   25.3650 C.3       1 ACR         0.1341
     24 C3C        36.1230   50.5710   26.6870 C.3       1 ACR         0.1144
     25 C4C        36.9530   49.2520   26.9650 C.3       1 ACR         0.1184
     26 C5C        37.9080   49.0570   25.8050 C.3       1 ACR         0.1134
     27 C6C        38.7020   47.7490   25.9940 C.3       1 ACR         0.0730
     28 O2C        34.5300   51.5160   25.0660 O.3       1 ACR        -0.3841
     29 O3C        35.2010   50.7860   27.7190 O.3       1 ACR        -0.3864
     30 O4C        37.8040   49.3280   28.1650 O.3       1 ACR        -0.3401
     31 O5C        37.1460   48.9750   24.5340 O.3       1 ACR        -0.3405
     32 O6C        39.8840   47.7890   25.2420 O.3       1 ACR        -0.3924
     33 C1D        38.8550   54.0150   21.1980 C.3       1 ACR         0.1854
     34 C2D        37.3070   54.0130   21.3880 C.3       1 ACR         0.1339
     35 C3D        36.9640   53.3950   22.7730 C.3       1 ACR         0.1144
     36 C4D        37.4970   51.9410   22.8280 C.3       1 ACR         0.1184
     37 C5D        39.0410   51.9720   22.6440 C.3       1 ACR         0.1134
     38 C6D        39.6420   50.5430   22.6700 C.3       1 ACR         0.0730
     39 O1D        39.4710   54.8610   22.1470 O.3       1 ACR        -0.3649
     40 O2D        36.8280   55.3550   21.2820 O.3       1 ACR        -0.3841
     41 O3D        35.5510   53.3920   22.9370 O.3       1 ACR        -0.3864
     42 O4D        37.1970   51.3120   24.1300 O.3       1 ACR        -0.3401
     43 O5D        39.3810   52.6240   21.3370 O.3       1 ACR        -0.3407
     44 O6D        38.9510   49.6520   21.7980 O.3       1 ACR        -0.3924
     45 H1         38.5346   46.3097   33.3020 H         1 ACR         0.0950
     46 H2         40.2134   44.8873   34.3455 H         1 ACR         0.0694
     47 H3         41.0987   44.1090   31.5268 H         1 ACR         0.0671
     48 H4         40.1918   42.0678   33.6303 H         1 ACR         0.0769
     49 H5         37.8107   40.9740   32.2120 H         1 ACR         0.0706
     50 H6         36.4897   42.1889   32.2847 H         1 ACR         0.0706
     51 H7         36.9436   44.4980   32.6739 H         1 ACR         0.0299
     52 H8         41.3390   46.4747   32.2801 H         1 ACR         0.2103
     53 H9         42.7702   44.2816   33.1111 H         1 ACR         0.2102
     54 H10        39.8293   40.9477   31.6631 H         1 ACR         0.2130
     55 H11        37.9816   41.2018   34.5280 H         1 ACR         0.2125
     56 H12        36.6972   50.5102   29.4465 H         1 ACR         0.0938
     57 H13        38.0016   50.0195   31.4739 H         1 ACR         0.0672
     58 H14        39.7333   48.2148   29.6689 H         1 ACR         0.0679
     59 H15        37.8725   47.6183   32.0539 H         1 ACR         0.0903
     60 H16        37.7034   46.8925   29.0309 H         1 ACR         0.0652
     61 H17        35.4544   46.0164   29.4945 H         1 ACR         0.0257
     62 H18        35.6819   46.3381   31.2471 H         1 ACR         0.0257
     63 H19        36.7039   45.1152   30.4183 H         1 ACR         0.0257
     64 H20        38.7647   45.3858   30.6243 H         1 ACR         0.2029
     65 H21        40.0847   46.2492   31.0950 H         1 ACR         0.2029
     66 H22        39.9282   51.0479   30.7263 H         1 ACR         0.2101
     67 H23        40.8350   47.9213   31.7065 H         1 ACR         0.2102
     68 H24        35.8267   49.9975   23.2563 H         1 ACR         0.0938
     69 H25        34.6527   49.4941   25.4603 H         1 ACR         0.0671
     70 H26        36.8015   51.4321   26.5976 H         1 ACR         0.0648
     71 H27        36.2624   48.4004   27.0536 H         1 ACR         0.0651
     72 H28        38.6051   49.9067   25.7612 H         1 ACR         0.0647
     73 H29        38.0878   46.8994   25.6610 H         1 ACR         0.0584
     74 H30        38.9521   47.6259   27.0581 H         1 ACR         0.0584
     75 H31        35.1009   52.2681   24.9609 H         1 ACR         0.2101
     76 H32        34.6058   50.0473   27.7694 H         1 ACR         0.2100
     77 H33        40.4163   48.5214   25.5296 H         1 ACR         0.2095
     78 H34        39.0883   54.3859   20.1890 H         1 ACR         0.0935
     79 H35        36.8416   53.4032   20.5997 H         1 ACR         0.0671
     80 H36        37.4293   53.9902   23.5725 H         1 ACR         0.0648
     81 H37        37.0348   51.3521   22.0221 H         1 ACR         0.0651
     82 H38        39.4821   52.5571   23.4644 H         1 ACR         0.0647
     83 H39        39.5816   50.1519   23.6963 H         1 ACR         0.0584
     84 H40        40.6959   50.5963   22.3593 H         1 ACR         0.0584
     85 H41        39.1308   55.7428   22.0514 H         1 ACR         0.2126
     86 H42        37.2299   55.8879   21.9581 H         1 ACR         0.2101
     87 H43        35.3316   53.0064   23.7771 H         1 ACR         0.2100
     88 H44        39.3505   48.7914   21.8450 H         1 ACR         0.2095
@<TRIPOS>BOND
     1    1    2 1  
     2    1    7 1  
     3   18    1 1  
     4    2    3 1  
     5    2    8 1  
     6    3    4 1  
     7    3    9 1  
     8    5    4 1  
     9    4   10 1  
    10    5    6 1  
    11    7    5 2  
    12    6   11 1  
    13   12   13 1  
    14   13   14 1  
    15   14   15 1  
    16   16   15 1  
    17   15   18 1  
    18   16   17 1  
    19   21   16 1  
    20   13   19 1  
    21   14   20 1  
    22   12   21 1  
    23   22   23 1  
    24   22   31 1  
    25   42   22 1  
    26   23   24 1  
    27   23   28 1  
    28   24   25 1  
    29   24   29 1  
    30   26   25 1  
    31   25   30 1  
    32   26   27 1  
    33   31   26 1  
    34   27   32 1  
    35   30   12 1  
    36   34   33 1  
    37   33   39 1  
    38   35   34 1  
    39   34   40 1  
    40   36   35 1  
    41   35   41 1  
    42   36   37 1  
    43   42   36 1  
    44   37   38 1  
    45   37   43 1  
    46   38   44 1  
    47   43   33 1  
    48    1   45 1  
    49    2   46 1  
    50    3   47 1  
    51    4   48 1  
    52    6   49 1  
    53    6   50 1  
    54    7   51 1  
    55    8   52 1  
    56    9   53 1  
    57   10   54 1  
    58   11   55 1  
    59   12   56 1  
    60   13   57 1  
    61   14   58 1  
    62   15   59 1  
    63   16   60 1  
    64   17   61 1  
    65   17   62 1  
    66   17   63 1  
    67   18   64 1  
    68   18   65 1  
    69   19   66 1  
    70   20   67 1  
    71   22   68 1  
    72   23   69 1  
    73   24   70 1  
    74   25   71 1  
    75   26   72 1  
    76   27   73 1  
    77   27   74 1  
    78   28   75 1  
    79   29   76 1  
    80   32   77 1  
    81   33   78 1  
    82   34   79 1  
    83   35   80 1  
    84   36   81 1  
    85   37   82 1  
    86   38   83 1  
    87   38   84 1  
    88   39   85 1  
    89   40   86 1  
    90   41   87 1  
    91   44   88 1  
@<TRIPOS>SUBSTRUCTURE
     1 ACR         1

