### 
### Created by X-TOOL on Mon Sep 10 21:12:46 2018
### 

@<TRIPOS>MOLECULE
1lfo_ligand
   53    52     1     0     0
SMALL
GAST_HUCK


@<TRIPOS>ATOM
      1 C1         30.2200   39.6510   43.7100 C.2       1 OLA         0.0348
      2 O1         30.5060   40.7460   43.2560 O.co2     1 OLA        -0.5690
      3 O2         31.0960   38.9360   44.1640 O.co2     1 OLA        -0.5690
      4 C2         28.7630   39.1770   43.7320 C.3       1 OLA         0.0002
      5 C3         28.1480   38.9920   42.3500 C.3       1 OLA        -0.0414
      6 C4         29.2010   38.9700   41.2540 C.3       1 OLA        -0.0515
      7 C5         28.5690   38.8900   39.8780 C.3       1 OLA        -0.0528
      8 C6         27.6650   37.6800   39.7460 C.3       1 OLA        -0.0515
      9 C7         27.4130   37.3860   38.2860 C.3       1 OLA        -0.0464
     10 C8         26.9850   35.9510   38.0790 C.3       1 OLA        -0.0365
     11 C9         27.5080   35.5180   36.8110 C.2       1 OLA        -0.0987
     12 C10        27.0810   34.3870   36.1540 C.2       1 OLA        -0.0987
     13 C11        27.2160   33.0490   36.6760 C.3       1 OLA        -0.0365
     14 C12        27.4250   32.1080   35.5040 C.3       1 OLA        -0.0464
     15 C13        27.2770   30.6580   35.9160 C.3       1 OLA        -0.0515
     16 C14        27.3270   29.7590   34.6940 C.3       1 OLA        -0.0529
     17 C15        27.0860   28.3190   35.0790 C.3       1 OLA        -0.0531
     18 C16        27.2450   27.4060   33.8770 C.3       1 OLA        -0.0533
     19 C17        26.8250   25.9890   34.2170 C.3       1 OLA        -0.0559
     20 C18        28.0140   25.2990   34.8940 C.3       1 OLA        -0.0653
     21 H1         28.1658   39.9214   44.2790 H         1 OLA         0.0430
     22 H2         28.7212   38.2132   44.2605 H         1 OLA         0.0430
     23 H3         27.4526   39.8222   42.1571 H         1 OLA         0.0283
     24 H4         27.5969   38.0402   42.3315 H         1 OLA         0.0283
     25 H5         29.8510   38.0947   41.4002 H         1 OLA         0.0266
     26 H6         29.8029   39.8885   41.3180 H         1 OLA         0.0266
     27 H7         29.3661   38.8236   39.1228 H         1 OLA         0.0265
     28 H8         27.9749   39.7994   39.7051 H         1 OLA         0.0265
     29 H9         26.7076   37.8830   40.2481 H         1 OLA         0.0267
     30 H10        28.1481   36.8104   40.2154 H         1 OLA         0.0267
     31 H11        28.3377   37.5691   37.7191 H         1 OLA         0.0285
     32 H12        26.6193   38.0529   37.9183 H         1 OLA         0.0285
     33 H13        25.8870   35.8844   38.0739 H         1 OLA         0.0388
     34 H14        27.3870   35.3200   38.8853 H         1 OLA         0.0388
     35 H15        28.2865   36.1197   36.3443 H         1 OLA         0.0450
     36 H16        26.6118   34.5096   35.1789 H         1 OLA         0.0450
     37 H17        26.3039   32.7676   37.2227 H         1 OLA         0.0388
     38 H18        28.0804   32.9982   37.3543 H         1 OLA         0.0388
     39 H19        28.4361   32.2620   35.0991 H         1 OLA         0.0285
     40 H20        26.6803   32.3355   34.7270 H         1 OLA         0.0285
     41 H21        26.3129   30.5221   36.4280 H         1 OLA         0.0267
     42 H22        28.0961   30.3887   36.5991 H         1 OLA         0.0267
     43 H23        28.3171   29.8456   34.2226 H         1 OLA         0.0265
     44 H24        26.5521   30.0763   33.9806 H         1 OLA         0.0265
     45 H25        26.0652   28.2178   35.4761 H         1 OLA         0.0265
     46 H26        27.8111   28.0263   35.8526 H         1 OLA         0.0265
     47 H27        28.2991   27.4039   33.5627 H         1 OLA         0.0265
     48 H28        26.6179   27.7803   33.0545 H         1 OLA         0.0265
     49 H29        26.5520   25.4488   33.2985 H         1 OLA         0.0263
     50 H30        25.9638   26.0077   34.9011 H         1 OLA         0.0263
     51 H31        27.7393   24.2659   35.1534 H         1 OLA         0.0230
     52 H32        28.2840   25.8473   35.8086 H         1 OLA         0.0230
     53 H33        28.8722   25.2884   34.2060 H         1 OLA         0.0230
@<TRIPOS>BOND
     1    1    2 ar 
     2    1    3 ar 
     3    1    4 1  
     4    4    5 1  
     5    5    6 1  
     6    6    7 1  
     7    7    8 1  
     8    8    9 1  
     9    9   10 1  
    10   10   11 1  
    11   11   12 2  
    12   12   13 1  
    13   13   14 1  
    14   14   15 1  
    15   15   16 1  
    16   16   17 1  
    17   17   18 1  
    18   18   19 1  
    19   19   20 1  
    20    4   21 1  
    21    4   22 1  
    22    5   23 1  
    23    5   24 1  
    24    6   25 1  
    25    6   26 1  
    26    7   27 1  
    27    7   28 1  
    28    8   29 1  
    29    8   30 1  
    30    9   31 1  
    31    9   32 1  
    32   10   33 1  
    33   10   34 1  
    34   11   35 1  
    35   12   36 1  
    36   13   37 1  
    37   13   38 1  
    38   14   39 1  
    39   14   40 1  
    40   15   41 1  
    41   15   42 1  
    42   16   43 1  
    43   16   44 1  
    44   17   45 1  
    45   17   46 1  
    46   18   47 1  
    47   18   48 1  
    48   19   49 1  
    49   19   50 1  
    50   20   51 1  
    51   20   52 1  
    52   20   53 1  
@<TRIPOS>SUBSTRUCTURE
     1 OLA         1

