### 
### Created by X-TOOL on Mon Sep 10 21:12:49 2018
### 

@<TRIPOS>MOLECULE
1lgt_ligand
   24    25     1     0     0
SMALL
GAST_HUCK


@<TRIPOS>ATOM
      1 CA1        22.4900   21.7710   16.5330 C.ar      1 BP3         0.0046
      2 CA2        21.1240   22.0060   16.2810 C.ar      1 BP3         0.1265
      3 OA2        20.6090   23.2810   16.2370 O.3       1 BP3        -0.3342
      4 CA3        20.2170   20.9380   16.0630 C.ar      1 BP3         0.1178
      5 OA3        18.8840   21.2250   15.8220 O.3       1 BP3        -0.3369
      6 CA4        20.6740   19.6030   16.0920 C.ar      1 BP3        -0.0409
      7 CA5        22.0460   19.3510   16.3410 C.ar      1 BP3        -0.0805
      8 CA6        22.9460   20.4330   16.5610 C.ar      1 BP3        -0.0728
      9 CB1        23.4290   22.9220   16.7670 C.ar      1 BP3        -0.0107
     10 CB2        23.3790   23.7050   17.9610 C.ar      1 BP3         0.0448
     11 CB3        24.2730   24.7930   18.1600 C.ar      1 BP3        -0.0493
     12 CB4        25.2340   25.1130   17.1680 C.ar      1 BP3        -0.0630
     13 CB5        25.2930   24.3410   15.9820 C.ar      1 BP3        -0.0631
     14 CB6        24.3940   23.2580   15.7910 C.ar      1 BP3        -0.0568
     15 CL1        22.2520   23.4230   19.2720 Cl        1 BP3        -0.0714
     16 H1         19.9389   23.3739   16.9040 H         1 BP3         0.2459
     17 H2         18.3476   20.8195   16.4931 H         1 BP3         0.2441
     18 H3         19.9854   18.7824   15.9262 H         1 BP3         0.0514
     19 H4         22.4121   18.3309   16.3642 H         1 BP3         0.0500
     20 H5         23.9931   20.2281   16.7522 H         1 BP3         0.0503
     21 H6         24.2196   25.3781   19.0710 H         1 BP3         0.0619
     22 H7         25.9176   25.9412   17.3159 H         1 BP3         0.0603
     23 H8         26.0256   24.5771   15.2187 H         1 BP3         0.0614
     24 H9         24.4494   22.6771   14.8774 H         1 BP3         0.0606
@<TRIPOS>BOND
     1    1    9 1  
     2    1    8 ar 
     3    1    2 ar 
     4    2    4 ar 
     5    2    3 1  
     6    4    6 ar 
     7    4    5 1  
     8    6    7 ar 
     9    7    8 ar 
    10    9   14 ar 
    11    9   10 ar 
    12   10   11 ar 
    13   11   12 ar 
    14   12   13 ar 
    15   13   14 ar 
    16   10   15 1  
    17    3   16 1  
    18    5   17 1  
    19    6   18 1  
    20    7   19 1  
    21    8   20 1  
    22   11   21 1  
    23   12   22 1  
    24   13   23 1  
    25   14   24 1  
@<TRIPOS>SUBSTRUCTURE
     1 BP3         1

