### 
### Created by X-TOOL on Mon Sep 10 21:12:49 2018
### 

@<TRIPOS>MOLECULE
1lgw_ligand
   14    14     1     0     0
SMALL
GAST_HUCK


@<TRIPOS>ATOM
      1 C4         26.0520    5.6090    5.5940 C.ar      1 1AN        -0.0770
      2 C5         26.7970    6.7770    5.7660 C.ar      1 1AN        -0.0777
      3 C3         26.1130    5.0130    4.3400 C.ar      1 1AN        -0.0399
      4 C6         27.5720    7.3600    4.7520 C.ar      1 1AN        -0.0462
      5 C2         26.9300    5.5430    3.3420 C.ar      1 1AN         0.1479
      6 C1         27.6380    6.7380    3.5080 C.ar      1 1AN         0.0696
      7 N          28.4580    7.2140    2.5000 N.pl3     1 1AN        -0.3369
      8 F2         26.9420    4.9350    2.2100 F         1 1AN        -0.1928
      9 H1         25.4569    5.1888    6.3967 H         1 1AN         0.0495
     10 H2         26.7756    7.2601    6.7362 H         1 1AN         0.0549
     11 H3         25.5204    4.1285    4.1360 H         1 1AN         0.0568
     12 H4         28.1120    8.2820    4.9346 H         1 1AN         0.0502
     13 H5         28.9759    8.0948    2.6302 H         1 1AN         0.1708
     14 H6         28.5504    6.6875    1.6196 H         1 1AN         0.1708
@<TRIPOS>BOND
     1    1    3 ar 
     2    1    2 ar 
     3    2    4 ar 
     4    4    6 ar 
     5    6    7 1  
     6    6    5 ar 
     7    5    3 ar 
     8    5    8 1  
     9    1    9 1  
    10    2   10 1  
    11    3   11 1  
    12    4   12 1  
    13    7   13 1  
    14    7   14 1  
@<TRIPOS>SUBSTRUCTURE
     1 1AN         1

