### 
### Created by X-TOOL on Mon Sep 10 21:12:49 2018
### 

@<TRIPOS>MOLECULE
1lhu_ligand
   44    47     1     0     0
SMALL
GAST_HUCK


@<TRIPOS>ATOM
      1 C1         20.8340    8.7500   33.1660 C.ar      1 EST        -0.0749
      2 C2         19.5420    8.2930   33.2950 C.ar      1 EST        -0.0468
      3 C3         18.4990    9.1910   33.5750 C.ar      1 EST         0.0739
      4 O3         17.2330    8.6960   33.6900 O.3       1 EST        -0.3393
      5 C4         18.8040   10.5710   33.7190 C.ar      1 EST        -0.0385
      6 C5         20.1150   11.0470   33.5880 C.ar      1 EST        -0.0491
      7 C6         20.3720   12.5580   33.7540 C.3       1 EST        -0.0236
      8 C7         21.8630   12.9870   33.6970 C.3       1 EST        -0.0396
      9 C8         22.6880   12.1520   32.7090 C.3       1 EST        -0.0259
     10 C9         22.6420   10.6140   33.1440 C.3       1 EST        -0.0116
     11 C10        21.1850   10.1210   33.2980 C.ar      1 EST        -0.0484
     12 C11        23.4760    9.7400   32.1680 C.3       1 EST        -0.0421
     13 C12        24.9130   10.2600   32.0010 C.3       1 EST        -0.0433
     14 C13        24.9570   11.7460   31.5500 C.3       1 EST        -0.0028
     15 C14        24.1760   12.5870   32.6000 C.3       1 EST        -0.0285
     16 C15        24.4940   14.0470   32.2090 C.3       1 EST        -0.0469
     17 C16        25.9340   13.9470   31.6090 C.3       1 EST        -0.0261
     18 C17        26.3000   12.4550   31.6550 C.3       1 EST         0.0609
     19 O17        27.1830   12.1630   30.5530 O.3       1 EST        -0.3912
     20 C18        24.3800   11.8400   30.1030 C.3       1 EST        -0.0569
     21 H1         21.6185    8.0325   32.9544 H         1 EST         0.0511
     22 H2         19.3288    7.2364   33.1801 H         1 EST         0.0468
     23 H3         16.6321    9.4071   33.8788 H         1 EST         0.2457
     24 H4         18.0049   11.2709   33.9349 H         1 EST         0.0462
     25 H5         19.9665   12.8667   34.7288 H         1 EST         0.0410
     26 H6         19.8359   13.0843   32.9505 H         1 EST         0.0410
     27 H7         22.2990   12.8748   34.7006 H         1 EST         0.0290
     28 H8         21.9130   14.0425   33.3914 H         1 EST         0.0290
     29 H9         22.2292   12.2561   31.7147 H         1 EST         0.0326
     30 H10        23.1154   10.5362   34.1339 H         1 EST         0.0429
     31 H11        22.9835    9.7399   31.1844 H         1 EST         0.0286
     32 H12        23.5150    8.7125   32.5587 H         1 EST         0.0286
     33 H13        25.4251    9.6463   31.2453 H         1 EST         0.0273
     34 H14        25.4362   10.1677   32.9642 H         1 EST         0.0273
     35 H15        24.6144   12.4091   33.5931 H         1 EST         0.0311
     36 H16        24.4783   14.7044   33.0908 H         1 EST         0.0269
     37 H17        23.7794   14.4201   31.4606 H         1 EST         0.0269
     38 H18        26.6424   14.5345   32.2115 H         1 EST         0.0290
     39 H19        25.9437   14.3126   30.5716 H         1 EST         0.0290
     40 H20        26.7972   12.1946   32.6011 H         1 EST         0.0599
     41 H21        27.9687   12.6916   30.6296 H         1 EST         0.2098
     42 H22        23.4118   11.3196   30.0598 H         1 EST         0.0236
     43 H23        25.0808   11.3697   29.3975 H         1 EST         0.0236
     44 H24        24.2406   12.8969   29.8317 H         1 EST         0.0236
@<TRIPOS>BOND
     1    1    2 ar 
     2    1   11 ar 
     3    2    3 ar 
     4    3    4 1  
     5    3    5 ar 
     6    5    6 ar 
     7    6    7 1  
     8    6   11 ar 
     9    7    8 1  
    10    8    9 1  
    11    9   10 1  
    12    9   15 1  
    13   10   11 1  
    14   10   12 1  
    15   12   13 1  
    16   13   14 1  
    17   14   15 1  
    18   14   18 1  
    19   14   20 1  
    20   15   16 1  
    21   16   17 1  
    22   17   18 1  
    23   18   19 1  
    24    1   21 1  
    25    2   22 1  
    26    4   23 1  
    27    5   24 1  
    28    7   25 1  
    29    7   26 1  
    30    8   27 1  
    31    8   28 1  
    32    9   29 1  
    33   10   30 1  
    34   12   31 1  
    35   12   32 1  
    36   13   33 1  
    37   13   34 1  
    38   15   35 1  
    39   16   36 1  
    40   16   37 1  
    41   17   38 1  
    42   17   39 1  
    43   18   40 1  
    44   19   41 1  
    45   20   42 1  
    46   20   43 1  
    47   20   44 1  
@<TRIPOS>SUBSTRUCTURE
     1 EST         1

