### 
### Created by X-TOOL on Mon Sep 10 21:12:49 2018
### 

@<TRIPOS>MOLECULE
1lhv_ligand
   51    54     1     0     0
SMALL
GAST_HUCK


@<TRIPOS>ATOM
      1 C1         24.3870    9.8500   30.6970 C.3       1 NOG        -0.0207
      2 C2         25.8070   10.2680   30.3260 C.3       1 NOG         0.0151
      3 C3         26.1390   11.7200   30.5610 C.2       1 NOG         0.0872
      4 C4         25.3140   12.4880   31.5200 C.2       1 NOG        -0.0297
      5 C5         24.2440   11.9660   32.1810 C.2       1 NOG        -0.0384
      6 C6         23.4550   12.8040   33.1720 C.3       1 NOG        -0.0062
      7 C7         21.9170   12.7020   32.9620 C.3       1 NOG        -0.0343
      8 C8         21.4160   11.2390   32.8990 C.3       1 NOG        -0.0292
      9 C9         22.1820   10.4840   31.7820 C.3       1 NOG        -0.0198
     10 C10        23.7460   10.5010   31.9740 C.3       1 NOG         0.0098
     11 C11        21.6630    9.0100   31.6260 C.3       1 NOG        -0.0464
     12 C12        20.1190    8.9350   31.4350 C.3       1 NOG        -0.0431
     13 C13        19.3660    9.6410   32.5950 C.3       1 NOG         0.0137
     14 C14        19.8930   11.1350   32.6490 C.3       1 NOG        -0.0282
     15 C15        18.8980   11.8080   33.6140 C.3       1 NOG        -0.0458
     16 C16        17.5640   11.0280   33.4140 C.3       1 NOG        -0.0118
     17 C17        17.8360    9.9190   32.3720 C.3       1 NOG         0.1319
     18 C18        19.5690    8.8630   33.9500 C.3       1 NOG        -0.0464
     19 C19        19.5490    7.3340   33.9450 C.3       1 NOG        -0.0646
     20 C20        17.5150   10.4140   30.9880 C.1       1 NOG        -0.0704
     21 C21        17.2360   10.7760   29.9140 C.1       1 NOG        -0.1163
     22 O3         27.0740   12.2190   29.9750 O.2       1 NOG        -0.4093
     23 O17        17.0130    8.7790   32.6010 O.3       1 NOG        -0.3760
     24 H1         24.3947    8.7610   30.8518 H         1 NOG         0.0323
     25 H2         23.7385   10.0944   29.8427 H         1 NOG         0.0323
     26 H3         25.9543   10.0555   29.2568 H         1 NOG         0.0474
     27 H4         26.5053    9.6603   30.9203 H         1 NOG         0.0474
     28 H5         25.5771   13.5280   31.7074 H         1 NOG         0.0272
     29 H6         23.7555   13.8561   33.0594 H         1 NOG         0.0508
     30 H7         23.6937   12.4613   34.1896 H         1 NOG         0.0508
     31 H8         21.6571   13.2034   32.0180 H         1 NOG         0.0300
     32 H9         21.4137   13.2101   33.7978 H         1 NOG         0.0300
     33 H10        21.6360   10.7601   33.8645 H         1 NOG         0.0311
     34 H11        21.9683   11.0089   30.8392 H         1 NOG         0.0338
     35 H12        24.0154    9.9064   32.8594 H         1 NOG         0.0548
     36 H13        21.9340    8.4437   32.5293 H         1 NOG         0.0270
     37 H14        22.1487    8.5565   30.7494 H         1 NOG         0.0270
     38 H15        19.8140    7.8787   31.4018 H         1 NOG         0.0272
     39 H16        19.8522    9.4237   30.4863 H         1 NOG         0.0272
     40 H17        19.7375   11.5923   31.6607 H         1 NOG         0.0310
     41 H18        18.7683   12.8701   33.3589 H         1 NOG         0.0269
     42 H19        19.2464   11.7204   34.6537 H         1 NOG         0.0269
     43 H20        16.7814   11.7076   33.0457 H         1 NOG         0.0303
     44 H21        17.2426   10.5803   34.3660 H         1 NOG         0.0303
     45 H22        18.7710    9.1921   34.6318 H         1 NOG         0.0269
     46 H23        20.5454    9.1698   34.3531 H         1 NOG         0.0269
     47 H24        19.7050    6.9619   34.9683 H         1 NOG         0.0230
     48 H25        20.3510    6.9589   33.2923 H         1 NOG         0.0230
     49 H26        18.5766    6.9812   33.5709 H         1 NOG         0.0230
     50 H27        16.9836   11.1035   28.9423 H         1 NOG         0.1229
     51 H28        16.0993    9.0323   32.5415 H         1 NOG         0.2114
@<TRIPOS>BOND
     1    1    2 1  
     2    1   10 1  
     3    2    3 1  
     4    3    4 1  
     5    3   22 2  
     6    4    5 2  
     7    5    6 1  
     8    5   10 1  
     9    6    7 1  
    10    7    8 1  
    11    8    9 1  
    12    8   14 1  
    13    9   10 1  
    14    9   11 1  
    15   11   12 1  
    16   12   13 1  
    17   13   14 1  
    18   13   17 1  
    19   13   18 1  
    20   14   15 1  
    21   15   16 1  
    22   16   17 1  
    23   17   20 1  
    24   17   23 1  
    25   18   19 1  
    26   20   21 3  
    27    1   24 1  
    28    1   25 1  
    29    2   26 1  
    30    2   27 1  
    31    4   28 1  
    32    6   29 1  
    33    6   30 1  
    34    7   31 1  
    35    7   32 1  
    36    8   33 1  
    37    9   34 1  
    38   10   35 1  
    39   11   36 1  
    40   11   37 1  
    41   12   38 1  
    42   12   39 1  
    43   14   40 1  
    44   15   41 1  
    45   15   42 1  
    46   16   43 1  
    47   16   44 1  
    48   18   45 1  
    49   18   46 1  
    50   19   47 1  
    51   19   48 1  
    52   19   49 1  
    53   21   50 1  
    54   23   51 1  
@<TRIPOS>SUBSTRUCTURE
     1 NOG         1

