### 
### Created by X-TOOL on Mon Sep 10 21:12:49 2018
### 

@<TRIPOS>MOLECULE
1lhw_ligand
   48    51     1     0     0
SMALL
GAST_HUCK


@<TRIPOS>ATOM
      1 C1         20.5540    9.0130   33.4050 C.ar      1 ESM        -0.0457
      2 C10        20.9210   10.3670   33.4410 C.ar      1 ESM        -0.0569
      3 C11        23.1460    9.8710   32.3250 C.3       1 ESM        -0.0422
      4 C12        24.5870   10.3250   32.1460 C.3       1 ESM        -0.0433
      5 C13        24.7000   11.7870   31.6690 C.3       1 ESM        -0.0027
      6 C14        23.9390   12.6610   32.6610 C.3       1 ESM        -0.0285
      7 C15        24.3180   14.0970   32.2300 C.3       1 ESM        -0.0469
      8 C16        25.7490   13.9280   31.6970 C.3       1 ESM        -0.0261
      9 C17        26.0630   12.4400   31.7880 C.3       1 ESM         0.0609
     10 C18        24.1420   11.8940   30.2190 C.3       1 ESM        -0.0569
     11 C2         19.2630    8.5960   33.5510 C.ar      1 ESM         0.1058
     12 C3         18.2560    9.5210   33.7390 C.ar      1 ESM         0.1029
     13 C4         18.5920   10.8680   33.7950 C.ar      1 ESM        -0.0462
     14 C5         19.8940   11.3040   33.6540 C.ar      1 ESM        -0.0600
     15 C6         20.1630   12.8100   33.7270 C.3       1 ESM        -0.0287
     16 C7         21.6490   13.1860   33.7010 C.3       1 ESM        -0.0410
     17 C8         22.4460   12.2860   32.7540 C.3       1 ESM        -0.0262
     18 C9         22.3650   10.7990   33.2610 C.3       1 ESM        -0.0140
     19 O17        26.9810   12.0830   30.7200 O.3       1 ESM        -0.3912
     20 O3         16.9710    9.0850   33.8630 O.3       1 ESM        -0.3430
     21 O2         18.8040    7.2760   33.5290 O.3       1 ESM        -0.3310
     22 C19        19.7890    6.2700   33.3550 C.3       1 ESM         0.0553
     23 H1         21.3273    8.2683   33.2552 H         1 ESM         0.0434
     24 H2         23.1433    8.8556   32.7480 H         1 ESM         0.0286
     25 H3         22.6522    9.8602   31.3422 H         1 ESM         0.0286
     26 H4         25.0702    9.6747   31.4020 H         1 ESM         0.0273
     27 H5         25.1077   10.2291   33.1102 H         1 ESM         0.0273
     28 H6         24.3518   12.4973   33.6674 H         1 ESM         0.0311
     29 H7         24.2935   14.7869   33.0864 H         1 ESM         0.0269
     30 H8         23.6434   14.4652   31.4431 H         1 ESM         0.0269
     31 H9         26.4556   14.5051   32.3116 H         1 ESM         0.0290
     32 H10        25.8095   14.2673   30.6524 H         1 ESM         0.0290
     33 H11        26.5215   12.1885   32.7557 H         1 ESM         0.0599
     34 H12        23.1548   11.4113   30.1695 H         1 ESM         0.0236
     35 H13        24.8307   11.3925   29.5231 H         1 ESM         0.0236
     36 H14        24.0463   12.9538   29.9402 H         1 ESM         0.0236
     37 H15        17.8075   11.5990   33.9543 H         1 ESM         0.0434
     38 H16        19.7267   13.1933   34.6612 H         1 ESM         0.0390
     39 H17        19.6709   13.2902   32.8684 H         1 ESM         0.0390
     40 H18        22.0594   13.0863   34.7167 H         1 ESM         0.0288
     41 H19        21.7466   14.2295   33.3669 H         1 ESM         0.0288
     42 H20        22.0007   12.3581   31.7508 H         1 ESM         0.0326
     43 H21        22.8471   10.7535   34.2486 H         1 ESM         0.0427
     44 H22        27.7819   12.5858   30.8111 H         1 ESM         0.2098
     45 H23        16.6272    9.3522   34.7073 H         1 ESM         0.2419
     46 H24        19.3071    5.2812   33.3548 H         1 ESM         0.0570
     47 H25        20.5167    6.3230   34.1782 H         1 ESM         0.0570
     48 H26        20.3069    6.4257   32.3971 H         1 ESM         0.0570
@<TRIPOS>BOND
     1    2    1 ar 
     2    1   11 ar 
     3    2   14 ar 
     4   18    2 1  
     5    3    4 1  
     6    3   18 1  
     7    4    5 1  
     8    5    6 1  
     9    5    9 1  
    10    5   10 1  
    11    6    7 1  
    12    6   17 1  
    13    7    8 1  
    14    8    9 1  
    15    9   19 1  
    16   11   12 ar 
    17   11   21 1  
    18   12   13 ar 
    19   12   20 1  
    20   13   14 ar 
    21   14   15 1  
    22   15   16 1  
    23   16   17 1  
    24   17   18 1  
    25   21   22 1  
    26    1   23 1  
    27    3   24 1  
    28    3   25 1  
    29    4   26 1  
    30    4   27 1  
    31    6   28 1  
    32    7   29 1  
    33    7   30 1  
    34    8   31 1  
    35    8   32 1  
    36    9   33 1  
    37   10   34 1  
    38   10   35 1  
    39   10   36 1  
    40   13   37 1  
    41   15   38 1  
    42   15   39 1  
    43   16   40 1  
    44   16   41 1  
    45   17   42 1  
    46   18   43 1  
    47   19   44 1  
    48   20   45 1  
    49   22   46 1  
    50   22   47 1  
    51   22   48 1  
@<TRIPOS>SUBSTRUCTURE
     1 ESM         1

