### 
### Created by X-TOOL on Mon Sep 10 21:12:48 2018
### 

@<TRIPOS>MOLECULE
1li2_ligand
   13    13     1     0     0
SMALL
GAST_HUCK


@<TRIPOS>ATOM
      1 C1         27.4870    6.6370    3.5090 C.ar      1 IPH         0.0876
      2 C2         26.7380    5.4850    3.2810 C.ar      1 IPH        -0.0334
      3 C3         26.0000    4.9200    4.3200 C.ar      1 IPH        -0.0707
      4 C4         26.0150    5.4820    5.5880 C.ar      1 IPH        -0.0729
      5 C5         26.7910    6.6160    5.7900 C.ar      1 IPH        -0.0707
      6 C6         27.5250    7.2200    4.7650 C.ar      1 IPH        -0.0334
      7 O1         28.2030    7.1990    2.5140 O.3       1 IPH        -0.3331
      8 H1         26.7290    5.0288    2.2977 H         1 IPH         0.0542
      9 H2         25.4076    4.0313    4.1348 H         1 IPH         0.0589
     10 H3         25.4382    5.0490    6.3972 H         1 IPH         0.0523
     11 H4         26.8290    7.0502    6.7825 H         1 IPH         0.0589
     12 H5         28.1059    8.1168    4.9474 H         1 IPH         0.0542
     13 H6         27.9058    8.0907    2.3761 H         1 IPH         0.2481
@<TRIPOS>BOND
     1    1    7 1  
     2    1    6 ar 
     3    1    2 ar 
     4    2    3 ar 
     5    3    4 ar 
     6    4    5 ar 
     7    5    6 ar 
     8    2    8 1  
     9    3    9 1  
    10    4   10 1  
    11    5   11 1  
    12    6   12 1  
    13    7   13 1  
@<TRIPOS>SUBSTRUCTURE
     1 IPH         1

