### 
### Created by X-TOOL on Mon Sep 10 21:12:49 2018
### 

@<TRIPOS>MOLECULE
1li3_ligand
   13    13     1     0     0
SMALL
GAST_HUCK


@<TRIPOS>ATOM
      1 C4         26.7240    5.1420    3.3130 C.ar      1 3CH        -0.0590
      2 C5         27.5210    5.8410    2.4050 C.ar      1 3CH        -0.0701
      3 C3         26.4670    5.7800    4.5160 C.ar      1 3CH         0.0318
      4 C6         28.0720    7.0990    2.6510 C.ar      1 3CH        -0.0332
      5 C2         27.0030    7.0320    4.8100 C.ar      1 3CH        -0.0196
      6 C1         27.8030    7.6930    3.8740 C.ar      1 3CH         0.0880
      7 OH         28.3730    8.9120    4.1230 O.3       1 3CH        -0.3331
      8 CL         25.6770    5.1440    5.4360 Cl        1 3CH        -0.0736
      9 H1         26.3291    4.1574    3.0901 H         1 3CH         0.0529
     10 H2         27.7250    5.3766    1.4470 H         1 3CH         0.0589
     11 H3         28.6895    7.5949    1.9108 H         1 3CH         0.0544
     12 H4         26.7987    7.4952    5.7685 H         1 3CH         0.0547
     13 H5         29.3188    8.8319    4.0845 H         1 3CH         0.2481
@<TRIPOS>BOND
     1    1    3 ar 
     2    1    2 ar 
     3    2    4 ar 
     4    4    6 ar 
     5    6    7 1  
     6    6    5 ar 
     7    5    3 ar 
     8    3    8 1  
     9    1    9 1  
    10    2   10 1  
    11    4   11 1  
    12    5   12 1  
    13    7   13 1  
@<TRIPOS>SUBSTRUCTURE
     1 3CH         1

