### 
### Created by X-TOOL on Mon Sep 10 21:12:48 2018
### 

@<TRIPOS>MOLECULE
1li6_ligand
   13    13     1     0     0
SMALL
GAST_HUCK


@<TRIPOS>ATOM
      1 C1         26.7300    5.9470    4.3230 C.2       1 5MP        -0.0733
      2 C2         27.1480    7.0620    5.1970 C.2       1 5MP        -0.0835
      3 C3         27.3380    6.1470    3.1460 C.2       1 5MP         0.0079
      4 C4         25.8010    4.8230    4.6960 C.3       1 5MP        -0.0517
      5 C5         27.9620    7.8210    4.4460 C.2       1 5MP         0.0081
      6 N6         28.0940    7.2770    3.2070 N.pl3     1 5MP        -0.3036
      7 H1         26.8572    7.2325    6.2325 H         1 5MP         0.0250
      8 H2         27.2419    5.5031    2.2730 H         1 5MP         0.0681
      9 H3         25.4730    4.9490    5.7384 H         1 5MP         0.0315
     10 H4         26.3267    3.8625    4.5906 H         1 5MP         0.0315
     11 H5         24.9244    4.8360    4.0317 H         1 5MP         0.0315
     12 H6         28.4455    8.7378    4.7802 H         1 5MP         0.0787
     13 H7         28.6700    7.6567    2.4422 H         1 5MP         0.2299
@<TRIPOS>BOND
     1    1    2 1  
     2    1    3 2  
     3    1    4 1  
     4    2    5 2  
     5    3    6 1  
     6    5    6 1  
     7    2    7 1  
     8    3    8 1  
     9    4    9 1  
    10    4   10 1  
    11    4   11 1  
    12    5   12 1  
    13    6   13 1  
@<TRIPOS>SUBSTRUCTURE
     1 5MP         1

