### 
### Created by X-TOOL on Mon Sep 10 21:12:49 2018
### 

@<TRIPOS>MOLECULE
1ljt_ligand
   30    31     1     0     0
SMALL
GAST_HUCK


@<TRIPOS>ATOM
      1 C12       -44.2650   43.1200   11.8820 C.3       1 HDI         0.0658
      2 C11       -42.8590   42.6230    9.9600 C.2       1 HDI         0.2366
      3 O3        -42.3970   43.7390    9.6980 O.2       1 HDI        -0.3703
      4 O4        -44.0190   42.3620   10.6770 O.3       1 HDI        -0.2801
      5 C10       -42.1790   41.3400    9.5080 C.3       1 HDI         0.0831
      6 N1        -40.6100   41.7180    6.4310 N.2       1 HDI        -0.1772
      7 O2        -41.0800   42.3130    7.4950 O.3       1 HDI        -0.2470
      8 C9        -40.8800   41.5740    8.7110 C.3       1 HDI         0.1262
      9 C8        -40.1680   40.3040    8.2300 C.3       1 HDI         0.0278
     10 C7        -40.0890   40.6050    6.7550 C.2       1 HDI         0.0504
     11 O1        -37.5930   37.0540    3.0540 O.3       1 HDI        -0.3319
     12 C5        -39.6370   39.8230    4.3580 C.ar      1 HDI        -0.0606
     13 C6        -39.4390   39.6630    5.7450 C.ar      1 HDI        -0.0146
     14 C1        -38.6160   38.6210    6.2030 C.ar      1 HDI        -0.0606
     15 C2        -38.0080   37.7600    5.3100 C.ar      1 HDI        -0.0316
     16 C3        -38.2040   37.9170    3.9350 C.ar      1 HDI         0.0894
     17 C4        -39.0270   38.9580    3.4620 C.ar      1 HDI        -0.0316
     18 H1        -45.2165   42.7977   12.3300 H         1 HDI         0.0577
     19 H2        -44.3193   44.1909   11.6369 H         1 HDI         0.0577
     20 H3        -43.4466   42.9485   12.5966 H         1 HDI         0.0577
     21 H4        -42.8807   40.7807    8.8717 H         1 HDI         0.0551
     22 H5        -41.9365   40.7429   10.3994 H         1 HDI         0.0551
     23 H6        -40.1996   42.1353    9.3683 H         1 HDI         0.0723
     24 H7        -40.7606   39.3997    8.4328 H         1 HDI         0.0462
     25 H8        -39.1703   40.1974    8.6808 H         1 HDI         0.0462
     26 H9        -38.2552   36.6037    2.5428 H         1 HDI         0.2491
     27 H10       -40.2679   40.6245    3.9911 H         1 HDI         0.0598
     28 H11       -38.4564   38.4912    7.2673 H         1 HDI         0.0598
     29 H12       -37.3763   36.9593    5.6772 H         1 HDI         0.0548
     30 H13       -39.1836   39.0830    2.3967 H         1 HDI         0.0548
@<TRIPOS>BOND
     1    4    1 1  
     2    2    3 2  
     3    2    4 1  
     4    5    2 1  
     5    8    5 1  
     6    7    6 1  
     7    8    7 1  
     8    8    9 1  
     9    9   10 1  
    10   10    6 2  
    11   10   13 1  
    12   13   14 ar 
    13   14   15 ar 
    14   15   16 ar 
    15   16   17 ar 
    16   17   12 ar 
    17   16   11 1  
    18   13   12 ar 
    19    1   18 1  
    20    1   19 1  
    21    1   20 1  
    22    5   21 1  
    23    5   22 1  
    24    8   23 1  
    25    9   24 1  
    26    9   25 1  
    27   11   26 1  
    28   12   27 1  
    29   14   28 1  
    30   15   29 1  
    31   17   30 1  
@<TRIPOS>SUBSTRUCTURE
     1 HDI         1

