### 
### Created by X-TOOL on Mon Sep 10 21:12:50 2018
### 

@<TRIPOS>MOLECULE
1lke_ligand
   62    66     1     0     0
SMALL
GAST_HUCK


@<TRIPOS>ATOM
      1 O23        15.2650  -21.2770   37.4530 O.2       1 DOG        -0.3870
      2 C23        14.6030  -22.2720   37.4610 C.2       1 DOG         0.2187
      3 C22        13.4710  -22.6250   36.6410 C.2       1 DOG         0.0017
      4 O21        14.8390  -23.3060   38.2920 O.3       1 DOG        -0.2665
      5 C21        13.9160  -24.3950   38.0480 C.3       1 DOG         0.1204
      6 C20        13.0620  -23.8540   36.9790 C.2       1 DOG        -0.0063
      7 C17        11.9260  -24.6400   36.4590 C.3       1 DOG         0.0177
      8 C16        12.1300  -26.1830   36.3780 C.3       1 DOG        -0.0318
      9 C13        10.5510  -24.4330   37.2170 C.3       1 DOG         0.0405
     10 C18        10.5420  -23.2570   38.1900 C.3       1 DOG        -0.0516
     11 C12         9.4700  -24.2150   36.1290 C.3       1 DOG         0.0664
     12 O12         9.6080  -22.8950   35.5440 O.3       1 DOG        -0.3909
     13 C14        10.3040  -25.7990   37.9190 C.3       1 DOG         0.0799
     14 C15        10.8390  -26.8230   36.9020 C.3       1 DOG        -0.0200
     15 O14        11.2120  -25.9320   39.0410 O.3       1 DOG        -0.3874
     16 C8          8.8450  -26.0090   38.3570 C.3       1 DOG        -0.0079
     17 C7          8.6220  -27.4280   38.8860 C.3       1 DOG        -0.0470
     18 C9          7.7830  -25.6750   37.2840 C.3       1 DOG        -0.0276
     19 C11         8.0680  -24.2710   36.6520 C.3       1 DOG        -0.0223
     20 C10         6.3470  -25.8090   37.8600 C.3       1 DOG        -0.0258
     21 C19         6.0900  -24.7760   38.9900 C.3       1 DOG        -0.0590
     22 C5          6.1190  -27.2550   38.3960 C.3       1 DOG        -0.0330
     23 C6          7.2120  -27.6550   39.4110 C.3       1 DOG        -0.0493
     24 C4          6.0880  -28.3180   37.2770 C.3       1 DOG        -0.0235
     25 C3          5.0730  -27.9620   36.1890 C.3       1 DOG         0.0555
     26 O32         3.7660  -28.0980   36.7460 O.3       1 DOG        -0.3918
     27 C2          5.2890  -26.5800   35.6480 C.3       1 DOG        -0.0263
     28 C1          5.2750  -25.5600   36.7670 C.3       1 DOG        -0.0448
     29 H1         13.0227  -21.9958   35.8735 H         1 DOG         0.0295
     30 H2         13.3276  -24.6268   38.9480 H         1 DOG         0.0859
     31 H3         14.4466  -25.2988   37.7140 H         1 DOG         0.0859
     32 H4         11.7824  -24.2832   35.4284 H         1 DOG         0.0550
     33 H5         12.9841  -26.4863   37.0012 H         1 DOG         0.0301
     34 H6         12.3094  -26.4881   35.3365 H         1 DOG         0.0301
     35 H7         10.7211  -22.3227   37.6376 H         1 DOG         0.0239
     36 H8         11.3335  -23.3964   38.9410 H         1 DOG         0.0239
     37 H9          9.5649  -23.2043   38.6925 H         1 DOG         0.0239
     38 H10         9.5991  -24.9851   35.3543 H         1 DOG         0.0602
     39 H11         9.5053  -22.2372   36.2217 H         1 DOG         0.2098
     40 H12        11.0498  -27.7859   37.3903 H         1 DOG         0.0295
     41 H13        10.1185  -26.9761   36.0850 H         1 DOG         0.0295
     42 H14        11.1777  -26.8222   39.3709 H         1 DOG         0.2102
     43 H15         8.6722  -25.3170   39.1944 H         1 DOG         0.0332
     44 H16         9.3339  -27.6125   39.7040 H         1 DOG         0.0269
     45 H17         8.8099  -28.1398   38.0687 H         1 DOG         0.0269
     46 H18         7.8780  -26.4186   36.4790 H         1 DOG         0.0310
     47 H19         7.3643  -24.0951   35.8251 H         1 DOG         0.0293
     48 H20         7.9347  -23.4935   37.4186 H         1 DOG         0.0293
     49 H21         5.0664  -24.8993   39.3736 H         1 DOG         0.0235
     50 H22         6.2119  -23.7582   38.5911 H         1 DOG         0.0235
     51 H23         6.8094  -24.9386   39.8061 H         1 DOG         0.0235
     52 H24         5.1455  -27.2688   38.9080 H         1 DOG         0.0307
     53 H25         7.0776  -27.0574   40.3246 H         1 DOG         0.0268
     54 H26         7.0945  -28.7222   39.6503 H         1 DOG         0.0268
     55 H27         5.8155  -29.2895   37.7151 H         1 DOG         0.0293
     56 H28         7.0876  -28.3878   36.8233 H         1 DOG         0.0293
     57 H29         5.1820  -28.6746   35.3581 H         1 DOG         0.0593
     58 H30         3.1177  -27.8813   36.0863 H         1 DOG         0.2098
     59 H31         4.4876  -26.3426   34.9328 H         1 DOG         0.0290
     60 H32         6.2615  -26.5406   35.1354 H         1 DOG         0.0290
     61 H33         5.4500  -24.5655   36.3308 H         1 DOG         0.0271
     62 H34         4.2836  -25.5823   37.2431 H         1 DOG         0.0271
@<TRIPOS>BOND
     1    1    2 2  
     2    2    3 1  
     3    2    4 1  
     4    3    6 2  
     5    4    5 1  
     6    5    6 1  
     7    6    7 1  
     8    7    8 1  
     9    7    9 1  
    10    8   14 1  
    11    9   10 1  
    12    9   11 1  
    13    9   13 1  
    14   11   12 1  
    15   11   19 1  
    16   13   14 1  
    17   13   15 1  
    18   13   16 1  
    19   16   17 1  
    20   16   18 1  
    21   17   23 1  
    22   18   19 1  
    23   18   20 1  
    24   20   21 1  
    25   20   22 1  
    26   20   28 1  
    27   22   23 1  
    28   22   24 1  
    29   24   25 1  
    30   25   26 1  
    31   25   27 1  
    32   27   28 1  
    33    3   29 1  
    34    5   30 1  
    35    5   31 1  
    36    7   32 1  
    37    8   33 1  
    38    8   34 1  
    39   10   35 1  
    40   10   36 1  
    41   10   37 1  
    42   11   38 1  
    43   12   39 1  
    44   14   40 1  
    45   14   41 1  
    46   15   42 1  
    47   16   43 1  
    48   17   44 1  
    49   17   45 1  
    50   18   46 1  
    51   19   47 1  
    52   19   48 1  
    53   21   49 1  
    54   21   50 1  
    55   21   51 1  
    56   22   52 1  
    57   23   53 1  
    58   23   54 1  
    59   24   55 1  
    60   24   56 1  
    61   25   57 1  
    62   26   58 1  
    63   27   59 1  
    64   27   60 1  
    65   28   61 1  
    66   28   62 1  
@<TRIPOS>SUBSTRUCTURE
     1 DOG         1

