### 
### Created by X-TOOL on Mon Sep 10 21:12:49 2018
### 

@<TRIPOS>MOLECULE
1ll4_ligand
   86    89     1     0     0
SMALL
GAST_HUCK


@<TRIPOS>ATOM
      1 C1         68.3290   34.1290   51.6790 C.3       1 NAA         0.1854
      2 C2         69.5780   35.0150   51.5730 C.3       1 NAA         0.1210
      3 C3         70.1640   35.4510   52.8660 C.3       1 NAA         0.1111
      4 C4         69.0480   35.8470   53.8390 C.3       1 NAA         0.1116
      5 C5         67.9030   34.8450   53.8540 C.3       1 NAA         0.1130
      6 C6         66.6980   35.0210   54.8170 C.3       1 NAA         0.0730
      7 C7         71.1540   34.6340   49.8470 C.2       1 NAA         0.1733
      8 C8         70.7770   35.9710   49.2930 C.3       1 NAA         0.0257
      9 N2         70.6410   34.2470   50.9820 N.am      1 NAA        -0.2766
     10 O3         71.0010   34.4650   53.4360 O.3       1 NAA        -0.3867
     11 O4         69.6530   35.8200   55.1170 O.3       1 NAA        -0.3865
     12 O5         67.3610   34.7370   52.5230 O.3       1 NAA        -0.3408
     13 O6         65.7510   33.9490   54.6870 O.3       1 NAA        -0.3924
     14 O7         71.9210   33.9170   49.2310 O.2       1 NAA        -0.3974
     15 C1         65.4010   30.6850   49.0450 C.3       1 NAA         0.1853
     16 C2         65.3780   30.8670   50.5690 C.3       1 NAA         0.1210
     17 C3         65.9320   32.2450   51.0230 C.3       1 NAA         0.1114
     18 C4         67.3090   32.4680   50.2990 C.3       1 NAA         0.1181
     19 C5         67.2070   32.1700   48.8120 C.3       1 NAA         0.1134
     20 C6         68.4900   32.2060   47.9660 C.3       1 NAA         0.0730
     21 C7         63.5870   30.0540   52.0110 C.2       1 NAA         0.1733
     22 C8         64.7010   29.6200   52.9530 C.3       1 NAA         0.0257
     23 N2         63.9820   30.7530   50.9590 N.am      1 NAA        -0.2766
     24 O3         65.0460   33.3590   50.8660 O.3       1 NAA        -0.3867
     25 O4         67.7740   33.8500   50.4380 O.3       1 NAA        -0.3404
     26 O5         66.6930   30.8710   48.5650 O.3       1 NAA        -0.3408
     27 O6         68.2390   31.8300   46.5810 O.3       1 NAA        -0.3924
     28 O7         62.4020   29.7340   52.1900 O.2       1 NAA        -0.3974
     29 C1         63.9060   26.9740   46.3660 C.3       1 AMI         0.1138
     30 C2         64.9380   27.8070   45.6370 C.3       1 AMI         0.1538
     31 C3         65.6800   28.4380   46.7530 C.3       1 AMI         0.1281
     32 C4         64.5710   28.9510   47.5730 C.3       1 AMI         0.0995
     33 C5         63.6500   27.7420   47.6730 C.3       1 AMI         0.0415
     34 C6         62.1870   28.0400   47.9060 C.3       1 AMI         0.0520
     35 C7         65.7670   25.7650   45.8000 C.cat     1 AMI         0.3581
     36 C8         67.8970   24.6950   45.4610 C.3       1 AMI         0.0801
     37 C9         65.9780   23.3620   46.1240 C.3       1 AMI         0.0801
     38 N2         65.9180   26.9160   45.0910 N.pl3     1 AMI        -0.2303
     39 N7         66.5230   24.6380   45.8010 N.pl3     1 AMI        -0.2309
     40 O3         66.5300   29.3300   46.0770 O.3       1 AMI        -0.3844
     41 O4         65.0850   29.3750   48.8170 O.3       1 AMI        -0.3425
     42 O6         62.0330   28.7320   49.1130 O.3       1 AMI        -0.3946
     43 O7         64.6780   25.7850   46.6240 O.3       1 AMI        -0.3125
     44 H1         68.6317   33.1747   52.1347 H         1 NAA         0.0935
     45 H2         69.3343   35.8947   50.9593 H         1 NAA         0.0633
     46 H3         70.7810   36.3409   52.6728 H         1 NAA         0.0645
     47 H4         68.6653   36.8493   53.5961 H         1 NAA         0.0647
     48 H5         68.3609   33.8808   54.1196 H         1 NAA         0.0647
     49 H6         66.1940   35.9713   54.5869 H         1 NAA         0.0584
     50 H7         67.0697   35.0443   55.8520 H         1 NAA         0.0584
     51 H8         71.2984   36.1324   48.3380 H         1 NAA         0.0467
     52 H9         71.0653   36.7578   50.0056 H         1 NAA         0.0467
     53 H10        69.6901   36.0062   49.1278 H         1 NAA         0.0467
     54 H11        70.9832   33.4247   51.4367 H         1 NAA         0.1857
     55 H12        71.3939   34.8058   54.2310 H         1 NAA         0.2100
     56 H13        69.9789   34.9453   55.2934 H         1 NAA         0.2100
     57 H14        65.4211   33.9257   53.7965 H         1 NAA         0.2095
     58 H15        64.6939   31.3686   48.5524 H         1 NAA         0.0935
     59 H16        65.9720   30.0721   51.0435 H         1 NAA         0.0633
     60 H17        66.1327   32.1683   52.1018 H         1 NAA         0.0645
     61 H18        68.0500   31.7927   50.7515 H         1 NAA         0.0650
     62 H19        66.5125   32.9162   48.3988 H         1 NAA         0.0647
     63 H20        69.2203   31.5057   48.3977 H         1 NAA         0.0584
     64 H21        68.9021   33.2256   47.9884 H         1 NAA         0.0584
     65 H22        64.2720   29.0491   53.7897 H         1 NAA         0.0467
     66 H23        65.2186   30.5088   53.3429 H         1 NAA         0.0467
     67 H24        65.4174   28.9884   52.4073 H         1 NAA         0.0467
     68 H25        63.2912   31.2226   50.4091 H         1 NAA         0.1857
     69 H26        65.4488   34.1369   51.2337 H         1 NAA         0.2100
     70 H27        67.8879   30.9477   46.5522 H         1 NAA         0.2095
     71 H28        62.9829   26.7830   45.7991 H         1 NAA         0.0644
     72 H29        64.5108   28.5066   44.9035 H         1 NAA         0.0888
     73 H30        66.2813   27.7286   47.3405 H         1 NAA         0.0668
     74 H31        64.0574   29.7913   47.0830 H         1 NAA         0.0629
     75 H32        63.9824   27.1243   48.5203 H         1 NAA         0.0376
     76 H33        61.6242   27.0960   47.9514 H         1 NAA         0.0561
     77 H34        61.8032   28.6563   47.0797 H         1 NAA         0.0561
     78 H35        68.3315   23.6862   45.5202 H         1 NAA         0.0761
     79 H36        68.4209   25.3615   46.1619 H         1 NAA         0.0761
     80 H37        68.0056   25.0814   44.4369 H         1 NAA         0.0761
     81 H38        64.9102   23.4698   46.3654 H         1 NAA         0.0761
     82 H39        66.5098   22.9452   46.9920 H         1 NAA         0.0761
     83 H40        66.0930   22.6858   45.2641 H         1 NAA         0.0761
     84 H41        66.5874   27.1048   44.3313 H         1 NAA         0.3231
     85 H42        66.9558   29.8991   46.7074 H         1 NAA         0.2101
     86 H43        62.5187   29.5475   49.0734 H         1 NAA         0.2094
@<TRIPOS>BOND
     1    1    2 1  
     2    1   12 1  
     3   25    1 1  
     4    2    3 1  
     5    2    9 1  
     6    3    4 1  
     7    3   10 1  
     8    5    4 1  
     9    4   11 1  
    10    5    6 1  
    11   12    5 1  
    12    6   13 1  
    13    7    8 1  
    14    9    7 am 
    15    7   14 2  
    16   15   16 1  
    17   15   26 1  
    18   41   15 1  
    19   16   17 1  
    20   16   23 1  
    21   17   18 1  
    22   17   24 1  
    23   19   18 1  
    24   18   25 1  
    25   19   20 1  
    26   26   19 1  
    27   20   27 1  
    28   21   22 1  
    29   23   21 am 
    30   21   28 2  
    31   29   30 1  
    32   33   29 1  
    33   29   43 1  
    34   31   30 1  
    35   30   38 1  
    36   32   31 1  
    37   31   40 1  
    38   32   33 1  
    39   32   41 1  
    40   33   34 1  
    41   34   42 1  
    42   38   35 ar 
    43   35   39 ar 
    44   35   43 1  
    45   39   36 1  
    46   39   37 1  
    47    1   44 1  
    48    2   45 1  
    49    3   46 1  
    50    4   47 1  
    51    5   48 1  
    52    6   49 1  
    53    6   50 1  
    54    8   51 1  
    55    8   52 1  
    56    8   53 1  
    57    9   54 1  
    58   10   55 1  
    59   11   56 1  
    60   13   57 1  
    61   15   58 1  
    62   16   59 1  
    63   17   60 1  
    64   18   61 1  
    65   19   62 1  
    66   20   63 1  
    67   20   64 1  
    68   22   65 1  
    69   22   66 1  
    70   22   67 1  
    71   23   68 1  
    72   24   69 1  
    73   27   70 1  
    74   29   71 1  
    75   30   72 1  
    76   31   73 1  
    77   32   74 1  
    78   33   75 1  
    79   34   76 1  
    80   34   77 1  
    81   36   78 1  
    82   36   79 1  
    83   36   80 1  
    84   37   81 1  
    85   37   82 1  
    86   37   83 1  
    87   38   84 1  
    88   40   85 1  
    89   42   86 1  
@<TRIPOS>SUBSTRUCTURE
     1 NAA         1

