### 
### Created by X-TOOL on Mon Sep 10 21:12:49 2018
### 

@<TRIPOS>MOLECULE
1llb_ligand
   45    46     1     0     0
SMALL
GAST_HUCK


@<TRIPOS>ATOM
      1 O1         78.4780    3.1490   29.0340 O.2       1 PCN        -0.3722
      2 C1         77.6500    4.0720   29.4420 C.2       1 PCN         0.1310
      3 C2         78.1190    5.3790   30.0230 C.3       1 PCN         0.1646
      4 C3         77.9560    6.4710   28.9810 C.3       1 PCN         0.0663
      5 S4         78.8280    8.0660   29.4490 S.3       1 PCN        -0.0899
      6 C5         79.7850    8.1370   27.8440 C.3       1 PCN         0.0708
      7 C51        81.1210    8.8530   28.1260 C.3       1 PCN        -0.0437
      8 C52        78.9500    8.8680   26.8240 C.3       1 PCN        -0.0437
      9 C6         79.9220    6.6460   27.5630 C.3       1 PCN         0.0459
     10 C61        80.4700    6.3160   26.1490 C.2       1 PCN         0.0859
     11 O62        81.6600    5.8970   26.0730 O.co2     1 PCN        -0.5642
     12 O63        79.6640    6.4960   25.2050 O.co2     1 PCN        -0.5642
     13 N7         78.5650    6.0830   27.6970 N.4       1 PCN         0.2550
     14 N8         79.4970    5.2040   30.4910 N.am      1 PCN        -0.2603
     15 C9         79.9890    5.9290   31.6200 C.2       1 PCN         0.2190
     16 O91        79.1920    6.6270   32.3030 O.2       1 PCN        -0.3862
     17 C10        81.4070    5.7420   31.8660 C.2       1 PCN         0.1486
     18 N11        82.4680    5.8250   30.9530 N.2       1 PCN        -0.1296
     19 O12        82.1000    6.2100   29.5580 O.3       1 PCN        -0.2311
     20 C13        83.2860    6.5860   28.8370 C.3       1 PCN         0.0864
     21 C14        81.8960    5.4350   33.1900 C.2       1 PCN         0.0260
     22 C15        81.2950    5.9180   34.4040 C.2       1 PCN         0.0081
     23 S16        82.0550    5.3660   35.7630 S.3       1 PCN         0.0150
     24 C17        83.1720    4.5420   34.8390 C.2       1 PCN         0.1779
     25 N18        82.8890    4.7240   33.5030 N.2       1 PCN        -0.3138
     26 N19        84.2390    3.7660   35.3140 N.pl3     1 PCN        -0.2979
     27 H1         76.5796    3.8896   29.3589 H         1 PCN         0.1376
     28 H2         77.4914    5.6367   30.8888 H         1 PCN         0.0858
     29 H3         76.8813    6.6622   28.8454 H         1 PCN         0.1026
     30 H4         81.7090    8.9109   27.1981 H         1 PCN         0.0246
     31 H5         81.6860    8.2900   28.8835 H         1 PCN         0.0246
     32 H6         80.9213    9.8689   28.4974 H         1 PCN         0.0246
     33 H7         79.4974    8.9200   25.8713 H         1 PCN         0.0246
     34 H8         78.7413    9.8866   27.1830 H         1 PCN         0.0246
     35 H9         78.0020    8.3309   26.6733 H         1 PCN         0.0246
     36 H10        80.5933    6.1986   28.3108 H         1 PCN         0.1039
     37 H11        77.9903    6.4254   26.9429 H         1 PCN         0.2045
     38 H12        78.6192    5.0776   27.6485 H         1 PCN         0.2045
     39 H13        80.1022    4.5675   30.0129 H         1 PCN         0.1878
     40 H14        83.0157    6.8698   27.8092 H         1 PCN         0.0620
     41 H15        83.9843    5.7364   28.8112 H         1 PCN         0.0620
     42 H16        83.7652    7.4394   29.3390 H         1 PCN         0.0620
     43 H17        80.4295    6.5785   34.4252 H         1 PCN         0.0635
     44 H18        84.8716    3.2982   34.6492 H         1 PCN         0.1863
     45 H19        84.3902    3.6638   36.3277 H         1 PCN         0.1863
@<TRIPOS>BOND
     1    1    2 2  
     2    2    3 1  
     3    3    4 1  
     4    3   14 1  
     5    4    5 1  
     6    4   13 1  
     7    5    6 1  
     8    6    7 1  
     9    6    8 1  
    10    6    9 1  
    11    9   10 1  
    12    9   13 1  
    13   10   11 ar 
    14   10   12 ar 
    15   14   15 am 
    16   15   16 2  
    17   15   17 1  
    18   17   18 2  
    19   17   21 1  
    20   18   19 1  
    21   19   20 1  
    22   21   22 2  
    23   21   25 1  
    24   22   23 1  
    25   23   24 1  
    26   24   25 2  
    27   24   26 1  
    28    2   27 1  
    29    3   28 1  
    30    4   29 1  
    31    7   30 1  
    32    7   31 1  
    33    7   32 1  
    34    8   33 1  
    35    8   34 1  
    36    8   35 1  
    37    9   36 1  
    38   13   37 1  
    39   13   38 1  
    40   14   39 1  
    41   20   40 1  
    42   20   41 1  
    43   20   42 1  
    44   22   43 1  
    45   26   44 1  
    46   26   45 1  
@<TRIPOS>SUBSTRUCTURE
     1 PCN         1

