### 
### Created by X-TOOL on Mon Sep 10 21:12:50 2018
### 

@<TRIPOS>MOLECULE
1lnm_ligand
   61    65     1     0     0
SMALL
GAST_HUCK


@<TRIPOS>ATOM
      1 O23        14.7810  -21.2920   37.1060 O.2       1 DTX        -0.3870
      2 C23        14.0400  -22.2080   37.0350 C.2       1 DTX         0.2187
      3 C22        12.9040  -22.5250   36.1640 C.2       1 DTX         0.0017
      4 O21        14.2300  -23.2610   37.9230 O.3       1 DTX        -0.2665
      5 C21        13.2240  -24.2650   37.6620 C.3       1 DTX         0.1204
      6 C20        12.4200  -23.7400   36.5320 C.2       1 DTX        -0.0064
      7 C17        11.2030  -24.5070   36.1160 C.3       1 DTX         0.0153
      8 C16        11.5560  -26.0430   36.1120 C.3       1 DTX        -0.0318
      9 C13         9.9670  -24.3170   36.9940 C.3       1 DTX         0.0147
     10 C12         8.7370  -24.1550   36.0510 C.3       1 DTX        -0.0418
     11 C11         7.3760  -24.3510   36.7060 C.3       1 DTX        -0.0486
     12 C18        10.0700  -23.1180   37.9310 C.3       1 DTX        -0.0540
     13 C14         9.7900  -25.7260   37.6820 C.3       1 DTX         0.0776
     14 C15        10.2620  -26.6830   36.6120 C.3       1 DTX        -0.0201
     15 O14        10.8260  -25.8640   38.7020 O.3       1 DTX        -0.3875
     16 C8          8.4190  -25.9590   38.3610 C.3       1 DTX        -0.0080
     17 C7          8.3930  -27.3110   39.0790 C.3       1 DTX        -0.0470
     18 C9          7.2220  -25.7460   37.3730 C.3       1 DTX        -0.0299
     19 C10         5.8660  -25.9760   38.1060 C.3       1 DTX        -0.0259
     20 C1          4.7060  -25.8560   37.0780 C.3       1 DTX        -0.0448
     21 C19         5.5120  -24.8810   39.1660 C.3       1 DTX        -0.0590
     22 C5          5.8640  -27.3860   38.6570 C.3       1 DTX        -0.0330
     23 C6          7.0040  -27.6710   39.6460 C.3       1 DTX        -0.0493
     24 C4          5.9350  -28.4260   37.5280 C.3       1 DTX        -0.0235
     25 C3          4.8350  -28.2580   36.4950 C.3       1 DTX         0.0555
     26 C2          4.8600  -26.8500   35.9340 C.3       1 DTX        -0.0263
     27 O32         3.5550  -28.4830   37.1580 O.3       1 DTX        -0.3918
     28 H1         12.5164  -21.8971   35.3631 H         1 DTX         0.0295
     29 H2         12.5897  -24.4125   38.5485 H         1 DTX         0.0859
     30 H3         13.6965  -25.2193   37.3862 H         1 DTX         0.0859
     31 H4         10.9424  -24.1915   35.0950 H         1 DTX         0.0549
     32 H5         12.3942  -26.2597   36.7905 H         1 DTX         0.0301
     33 H6         11.8052  -26.3906   35.0986 H         1 DTX         0.0301
     34 H7          8.8321  -24.8928   35.2407 H         1 DTX         0.0274
     35 H8          8.7660  -23.1400   35.6280 H         1 DTX         0.0274
     36 H9          6.5972  -24.2417   35.9369 H         1 DTX         0.0268
     37 H10         7.2422  -23.5770   37.4760 H         1 DTX         0.0268
     38 H11        10.1899  -22.1990   37.3386 H         1 DTX         0.0238
     39 H12        10.9395  -23.2436   38.5930 H         1 DTX         0.0238
     40 H13         9.1549  -23.0466   38.5372 H         1 DTX         0.0238
     41 H14        10.4533  -27.6811   37.0330 H         1 DTX         0.0295
     42 H15         9.5230  -26.7625   35.8011 H         1 DTX         0.0295
     43 H16        10.8580  -26.7657   38.9994 H         1 DTX         0.2102
     44 H17         8.3149  -25.1892   39.1398 H         1 DTX         0.0332
     45 H18         9.1125  -27.2793   39.9104 H         1 DTX         0.0269
     46 H19         8.6922  -28.0921   38.3647 H         1 DTX         0.0269
     47 H20         7.2912  -26.5018   36.5768 H         1 DTX         0.0310
     48 H21         4.6997  -24.8363   36.6654 H         1 DTX         0.0271
     49 H22         3.7530  -26.0495   37.5921 H         1 DTX         0.0271
     50 H23         6.2775  -24.8743   39.9559 H         1 DTX         0.0235
     51 H24         4.5300  -25.1034   39.6090 H         1 DTX         0.0235
     52 H25         5.4797  -23.8955   38.6784 H         1 DTX         0.0235
     53 H26         4.9133  -27.5233   39.1930 H         1 DTX         0.0307
     54 H27         6.8332  -27.0807   40.5583 H         1 DTX         0.0268
     55 H28         6.9932  -28.7424   39.8951 H         1 DTX         0.0268
     56 H29         5.8499  -29.4296   37.9703 H         1 DTX         0.0293
     57 H30         6.9074  -28.3291   37.0231 H         1 DTX         0.0293
     58 H31         4.9719  -28.9844   35.6804 H         1 DTX         0.0593
     59 H32         5.8167  -26.6751   35.4200 H         1 DTX         0.0290
     60 H33         4.0320  -26.7226   35.2211 H         1 DTX         0.0290
     61 H34         3.5335  -29.3644   37.5118 H         1 DTX         0.2098
@<TRIPOS>BOND
     1    1    2 2  
     2    2    3 1  
     3    2    4 1  
     4    3    6 2  
     5    4    5 1  
     6    5    6 1  
     7    6    7 1  
     8    7    8 1  
     9    7    9 1  
    10    8   14 1  
    11    9   10 1  
    12    9   12 1  
    13    9   13 1  
    14   10   11 1  
    15   11   18 1  
    16   13   14 1  
    17   13   15 1  
    18   13   16 1  
    19   16   17 1  
    20   16   18 1  
    21   17   23 1  
    22   18   19 1  
    23   19   20 1  
    24   19   21 1  
    25   19   22 1  
    26   20   26 1  
    27   22   23 1  
    28   22   24 1  
    29   24   25 1  
    30   25   26 1  
    31   25   27 1  
    32    3   28 1  
    33    5   29 1  
    34    5   30 1  
    35    7   31 1  
    36    8   32 1  
    37    8   33 1  
    38   10   34 1  
    39   10   35 1  
    40   11   36 1  
    41   11   37 1  
    42   12   38 1  
    43   12   39 1  
    44   12   40 1  
    45   14   41 1  
    46   14   42 1  
    47   15   43 1  
    48   16   44 1  
    49   17   45 1  
    50   17   46 1  
    51   18   47 1  
    52   20   48 1  
    53   20   49 1  
    54   21   50 1  
    55   21   51 1  
    56   21   52 1  
    57   22   53 1  
    58   23   54 1  
    59   23   55 1  
    60   24   56 1  
    61   24   57 1  
    62   25   58 1  
    63   26   59 1  
    64   26   60 1  
    65   27   61 1  
@<TRIPOS>SUBSTRUCTURE
     1 DTX         1

