### 
### Created by X-TOOL on Mon Sep 10 21:12:46 2018
### 

@<TRIPOS>MOLECULE
1lox_ligand
   38    38     1     0     0
SMALL
GAST_HUCK


@<TRIPOS>ATOM
      1 H1        -30.3200  149.5220   56.1764 H         1 RS7         0.0635
      2 C1        -28.2720  148.8510   55.7670 C.2       1 RS7         0.0522
      3 O19       -27.0700  149.1660   55.6110 O.co2     1 RS7        -0.5635
      4 O18       -28.6420  147.6640   55.6810 O.co2     1 RS7        -0.5635
      5 C2        -29.2890  149.8560   56.0700 C.2       1 RS7        -0.0278
      6 C3        -29.0240  151.2110   56.2310 C.2       1 RS7        -0.0444
      7 C4        -30.0100  152.0900   56.6730 C.ar      1 RS7        -0.0037
      8 C5        -31.3490  151.7020   56.5830 C.ar      1 RS7        -0.0509
      9 C6        -32.3620  152.4400   57.2150 C.ar      1 RS7        -0.0593
     10 C7        -32.0480  153.5860   57.9550 C.ar      1 RS7        -0.0590
     11 C8        -30.7210  154.0030   58.0660 C.ar      1 RS7        -0.0440
     12 C9        -29.7040  153.2740   57.4400 C.ar      1 RS7         0.0346
     13 C10       -28.3750  153.6140   57.7750 C.1       1 RS7        -0.0641
     14 C11       -27.0220  153.8520   58.0880 C.1       1 RS7        -0.0959
     15 C12       -25.5530  153.9750   58.4200 C.3       1 RS7         0.0098
     16 C13       -25.0390  152.6490   58.9670 C.3       1 RS7        -0.0421
     17 C14       -24.9570  151.5670   57.9010 C.3       1 RS7        -0.0522
     18 C15       -23.8630  151.8470   56.8870 C.3       1 RS7        -0.0533
     19 C16       -23.9060  150.8290   55.7600 C.3       1 RS7        -0.0559
     20 C17       -22.7690  151.0690   54.8000 C.3       1 RS7        -0.0653
     21 H2        -28.0285  151.5919   56.0078 H         1 RS7         0.0696
     22 H3        -31.6101  150.8161   56.0155 H         1 RS7         0.0640
     23 H4        -33.3943  152.1204   57.1295 H         1 RS7         0.0622
     24 H5        -32.8357  154.1495   58.4418 H         1 RS7         0.0631
     25 H6        -30.4781  154.8917   58.6372 H         1 RS7         0.0634
     26 H7        -25.4133  154.7615   59.1762 H         1 RS7         0.0398
     27 H8        -24.9929  154.2373   57.5103 H         1 RS7         0.0398
     28 H9        -25.7189  152.3089   59.7621 H         1 RS7         0.0274
     29 H10       -24.0344  152.8069   59.3862 H         1 RS7         0.0274
     30 H11       -25.9220  151.5125   57.3758 H         1 RS7         0.0266
     31 H12       -24.7501  150.6031   58.3890 H         1 RS7         0.0266
     32 H13       -22.8844  151.7924   57.3864 H         1 RS7         0.0265
     33 H14       -24.0060  152.8547   56.4697 H         1 RS7         0.0265
     34 H15       -24.8613  150.9216   55.2226 H         1 RS7         0.0263
     35 H16       -23.8188  149.8165   56.1810 H         1 RS7         0.0263
     36 H17       -22.8107  150.3266   53.9894 H         1 RS7         0.0230
     37 H18       -21.8120  150.9752   55.3342 H         1 RS7         0.0230
     38 H19       -22.8545  152.0803   54.3758 H         1 RS7         0.0230
@<TRIPOS>BOND
     1    2    5 1  
     2    2    4 ar 
     3    2    3 ar 
     4    5    6 2  
     5    6    7 1  
     6    7   12 ar 
     7    7    8 ar 
     8    8    9 ar 
     9    9   10 ar 
    10   10   11 ar 
    11   11   12 ar 
    12   12   13 1  
    13   13   14 3  
    14   14   15 1  
    15   15   16 1  
    16   16   17 1  
    17   17   18 1  
    18   18   19 1  
    19   19   20 1  
    20    5    1 1  
    21    6   21 1  
    22    8   22 1  
    23    9   23 1  
    24   10   24 1  
    25   11   25 1  
    26   15   26 1  
    27   15   27 1  
    28   16   28 1  
    29   16   29 1  
    30   17   30 1  
    31   17   31 1  
    32   18   32 1  
    33   18   33 1  
    34   19   34 1  
    35   19   35 1  
    36   20   36 1  
    37   20   37 1  
    38   20   38 1  
@<TRIPOS>SUBSTRUCTURE
     1 RS7         1

