### 
### Created by X-TOOL on Mon Sep 10 21:12:49 2018
### 

@<TRIPOS>MOLECULE
1lpg_ligand
   78    82     1     0     0
SMALL
GAST_HUCK


@<TRIPOS>ATOM
      1 C11         2.8550   10.4120   24.2780 C.ar      1 IMA         0.0785
      2 C12         3.6530    9.8170   25.2820 C.ar      1 IMA        -0.0424
      3 C13         4.7520    9.0450   24.9100 C.ar      1 IMA        -0.0451
      4 C14         5.0520    8.8970   23.5340 C.ar      1 IMA         0.0634
      5 C15         4.2710    9.5300   22.5180 C.ar      1 IMA        -0.0271
      6 C16         3.1590   10.2750   22.9060 C.ar      1 IMA        -0.0450
      7 C17         4.8320    9.2430   21.2590 C.2       1 IMA        -0.0430
      8 N18         6.0680    8.2080   22.8800 N.pl3     1 IMA        -0.2459
      9 C19         5.9460    8.4160   21.5380 C.2       1 IMA         0.1341
     10 C20         7.0020    7.2760   23.5300 C.3       1 IMA         0.0842
     11 C21         6.7890    7.9000   20.5480 C.2       1 IMA         0.2288
     12 N22         6.2690    7.6920   19.3480 N.am      1 IMA        -0.2709
     13 C23         7.2510    7.2910   18.3640 C.3       1 IMA         0.0707
     14 C24         7.5000    5.7980   18.2260 C.ar      1 IMA        -0.0062
     15 O27         7.9720    7.6720   20.7820 O.2       1 IMA        -0.3840
     16 C28         8.1890    7.9280   24.1650 C.ar      1 IMA        -0.0146
     17 C31         9.8130    7.7780   25.9590 C.ar      1 IMA         0.0193
     18 C32         8.6300    7.3110   25.3360 C.ar      1 IMA        -0.0526
     19 C33         8.8710    9.0460   23.6240 C.ar      1 IMA        -0.0578
     20 C34        10.0370    9.5370   24.2490 C.ar      1 IMA        -0.0685
     21 C35        10.5100    8.8920   25.4060 C.ar      1 IMA        -0.0635
     22 C36        10.2440    7.0540   27.1730 C.cat     1 IMA         0.2340
     23 N37         9.2600    6.4140   27.8440 N.pl3     1 IMA        -0.2722
     24 N38        11.5270    7.0460   27.5550 N.pl3     1 IMA        -0.2722
     25 C39         8.6730    3.7670   18.8340 C.ar      1 IMA        -0.0198
     26 C40         8.1110    3.0840   17.7320 C.ar      1 IMA         0.0026
     27 C41         7.2000    3.7750   16.9070 C.ar      1 IMA        -0.0198
     28 C42         6.8820    5.1260   17.1570 C.ar      1 IMA        -0.0411
     29 C43         8.3680    5.1190   19.0860 C.ar      1 IMA        -0.0411
     30 N44         8.4350    1.7110   17.4010 N.4       1 IMA         0.3999
     31 C45         9.2820    1.7390   16.2070 C.3       1 IMA        -0.0457
     32 C49         7.2210    0.9230   17.1210 C.3       1 IMA        -0.0457
     33 C53         9.1540    0.8600   18.3650 C.3       1 IMA        -0.0457
     34 O1          1.7490   11.1230   24.7030 O.3       1 IMA        -0.3134
     35 C1          0.9430   11.7990   23.7470 C.3       1 IMA         0.1019
     36 C2         -0.0120   12.5760   24.5990 C.ar      1 IMA        -0.0132
     37 C3         -1.1420   13.1320   23.9890 C.ar      1 IMA        -0.0578
     38 C4         -2.0870   13.8120   24.7850 C.ar      1 IMA        -0.0685
     39 C5         -1.8730   13.9250   26.1750 C.ar      1 IMA        -0.0687
     40 C6         -0.7240   13.3910   26.7840 C.ar      1 IMA        -0.0685
     41 C7          0.2150   12.7180   25.9910 C.ar      1 IMA        -0.0578
     42 H1          3.4127    9.9597   26.3294 H         1 IMA         0.0503
     43 H2          5.3676    8.5653   25.6623 H         1 IMA         0.0535
     44 H3          2.5311   10.7466   22.1588 H         1 IMA         0.0449
     45 H4          4.4849    9.5828   20.2843 H         1 IMA         0.0386
     46 H5          7.3647    6.5678   22.7705 H         1 IMA         0.0761
     47 H6          6.4531    6.7280   24.3100 H         1 IMA         0.0761
     48 H7          5.2964    7.8010   19.1428 H         1 IMA         0.1875
     49 H8          8.2063    7.7660   18.6319 H         1 IMA         0.0722
     50 H9          6.9166    7.6661   17.3855 H         1 IMA         0.0722
     51 H10         8.0741    6.4845   25.7637 H         1 IMA         0.0557
     52 H11         8.4959    9.5256   22.7272 H         1 IMA         0.0557
     53 H12        10.5592   10.3965   23.8444 H         1 IMA         0.0599
     54 H13        11.4163    9.2466   25.8834 H         1 IMA         0.0559
     55 H14         8.2900    6.4569   27.5002 H         1 IMA         0.3181
     56 H15         9.4804    5.8835   28.6990 H         1 IMA         0.3181
     57 H16        12.2323    7.5533   27.0017 H         1 IMA         0.3181
     58 H17        11.8089    6.5326   28.4023 H         1 IMA         0.3181
     59 H18         9.3506    3.2414   19.4970 H         1 IMA         0.0710
     60 H19         6.7387    3.2619   16.0709 H         1 IMA         0.0710
     61 H20         6.1656    5.6430   16.5289 H         1 IMA         0.0608
     62 H21         8.8023    5.6281   19.9388 H         1 IMA         0.0608
     63 H22         9.5500    0.7105   15.9234 H         1 IMA         0.0582
     64 H23        10.1972    2.3109   16.4199 H         1 IMA         0.0582
     65 H24         8.7351    2.2165   15.3806 H         1 IMA         0.0582
     66 H25         6.5834    0.9009   18.0171 H         1 IMA         0.0582
     67 H26         7.5053   -0.1039   16.8479 H         1 IMA         0.0582
     68 H27         6.6683    1.3840   16.2891 H         1 IMA         0.0582
     69 H28        10.0952    1.3496   18.6556 H         1 IMA         0.0582
     70 H29         9.3747   -0.1130   17.9019 H         1 IMA         0.0582
     71 H30         8.5291    0.7081   19.2574 H         1 IMA         0.0582
     72 H31         0.4078   11.0839   23.1050 H         1 IMA         0.0774
     73 H32         1.5504   12.4699   23.1217 H         1 IMA         0.0774
     74 H33        -1.2891   13.0413   22.9189 H         1 IMA         0.0557
     75 H34        -2.9716   14.2448   24.3320 H         1 IMA         0.0599
     76 H35        -2.6097   14.4340   26.7859 H         1 IMA         0.0559
     77 H36        -0.5668   13.4983   27.8512 H         1 IMA         0.0599
     78 H37         1.1119   12.3074   26.4405 H         1 IMA         0.0557
@<TRIPOS>BOND
     1    2    1 ar 
     2    6    1 ar 
     3    1   34 1  
     4    3    2 ar 
     5    4    3 ar 
     6    4    5 ar 
     7    8    4 1  
     8    5    6 ar 
     9    7    5 1  
    10    9    7 2  
    11    8    9 1  
    12   10    8 1  
    13    9   11 1  
    14   16   10 1  
    15   11   12 am 
    16   11   15 2  
    17   12   13 1  
    18   13   14 1  
    19   14   28 ar 
    20   14   29 ar 
    21   16   18 ar 
    22   19   16 ar 
    23   20   19 ar 
    24   21   20 ar 
    25   22   23 ar 
    26   22   24 ar 
    27   25   26 ar 
    28   29   25 ar 
    29   27   26 ar 
    30   26   30 1  
    31   28   27 ar 
    32   30   31 1  
    33   30   32 1  
    34   30   33 1  
    35   34   35 1  
    36   35   36 1  
    37   36   37 ar 
    38   36   41 ar 
    39   37   38 ar 
    40   38   39 ar 
    41   40   39 ar 
    42   41   40 ar 
    43   17   22 1  
    44   21   17 ar 
    45   18   17 ar 
    46    2   42 1  
    47    3   43 1  
    48    6   44 1  
    49    7   45 1  
    50   10   46 1  
    51   10   47 1  
    52   12   48 1  
    53   13   49 1  
    54   13   50 1  
    55   18   51 1  
    56   19   52 1  
    57   20   53 1  
    58   21   54 1  
    59   23   55 1  
    60   23   56 1  
    61   24   57 1  
    62   24   58 1  
    63   25   59 1  
    64   27   60 1  
    65   28   61 1  
    66   29   62 1  
    67   31   63 1  
    68   31   64 1  
    69   31   65 1  
    70   32   66 1  
    71   32   67 1  
    72   32   68 1  
    73   33   69 1  
    74   33   70 1  
    75   33   71 1  
    76   35   72 1  
    77   35   73 1  
    78   37   74 1  
    79   38   75 1  
    80   39   76 1  
    81   40   77 1  
    82   41   78 1  
@<TRIPOS>SUBSTRUCTURE
     1 IMA         1

