### 
### Created by X-TOOL on Mon Sep 10 21:12:49 2018
### 

@<TRIPOS>MOLECULE
1lpz_ligand
   55    58     1     0     0
SMALL
GAST_HUCK


@<TRIPOS>ATOM
      1 C1          3.9020    9.7100   25.8190 C.ar      1 CMB        -0.0818
      2 C2          5.0190    8.9440   25.4540 C.ar      1 CMB        -0.0479
      3 C3          5.3240    8.7110   24.0820 C.ar      1 CMB         0.0661
      4 C4          4.5650    9.2430   23.0410 C.ar      1 CMB        -0.0129
      5 C5          3.4020   10.0360   23.4190 C.ar      1 CMB        -0.0525
      6 C6          3.0890   10.2410   24.7900 C.ar      1 CMB        -0.0750
      7 N7          6.3100    7.8910   23.5500 N.pl3     1 CMB        -0.2444
      8 C8          6.1790    7.9630   22.1710 C.2       1 CMB         0.1335
      9 C9          5.1020    8.8590   21.7940 C.2       1 CMB        -0.0412
     10 C10         2.5560   10.6660   22.3880 C.3       1 CMB        -0.0337
     11 C11         6.9710    7.2330   21.2470 C.2       1 CMB         0.2265
     12 N12         6.4300    6.9100   20.0470 N.am      1 CMB        -0.2741
     13 C13         7.2180    6.1500   19.0760 C.3       1 CMB         0.0637
     14 C14         7.5250    4.6930   19.4150 C.ar      1 CMB        -0.0202
     15 C17         7.1730    7.0070   24.3450 C.3       1 CMB         0.0848
     16 C18         8.4660    7.6430   24.7880 C.ar      1 CMB        -0.0145
     17 C21         9.1520    8.6530   24.0800 C.ar      1 CMB        -0.0578
     18 C22        10.4430    9.0430   24.4850 C.ar      1 CMB        -0.0685
     19 C23        11.0080    8.4270   25.6190 C.ar      1 CMB        -0.0635
     20 C24        10.2730    7.4690   26.3560 C.ar      1 CMB         0.0193
     21 C25         9.0090    7.0820   25.9340 C.ar      1 CMB        -0.0526
     22 C26         8.4830    3.9960   18.6620 C.ar      1 CMB        -0.0444
     23 C27         8.7180    2.6240   18.8490 C.ar      1 CMB         0.0344
     24 C28         7.9850    1.9400   19.8330 C.ar      1 CMB        -0.0409
     25 C29         7.0210    2.6140   20.6080 C.ar      1 CMB         0.0344
     26 C30         6.8080    3.9930   20.3970 C.ar      1 CMB        -0.0444
     27 C31        10.7420    6.8550   27.5860 C.cat     1 CMB         0.2340
     28 N32        12.0200    6.8870   27.9700 N.pl3     1 CMB        -0.2722
     29 CL1         9.8430    1.7730   17.8020 Cl        1 CMB        -0.0725
     30 CL2         6.0320    1.7510   21.7850 Cl        1 CMB        -0.0725
     31 O45         8.1180    6.8820   21.5360 O.2       1 CMB        -0.3855
     32 N53         9.8220    6.2060   28.2890 N.pl3     1 CMB        -0.2722
     33 H1          3.6679    9.8904   26.8619 H         1 CMB         0.0532
     34 H2          5.6568    8.5250   26.2239 H         1 CMB         0.0483
     35 H3          2.2087   10.8164   25.0529 H         1 CMB         0.0448
     36 H4          4.7864    9.1604   20.7962 H         1 CMB         0.0398
     37 H5          2.9383   10.4048   21.3902 H         1 CMB         0.0392
     38 H6          2.5766   11.7585   22.5141 H         1 CMB         0.0392
     39 H7          1.5222   10.3045   22.4908 H         1 CMB         0.0392
     40 H8          5.4958    7.1900   19.8260 H         1 CMB         0.1868
     41 H9          8.1790    6.6701   18.9498 H         1 CMB         0.0682
     42 H10         6.6681    6.1594   18.1234 H         1 CMB         0.0682
     43 H11         7.4139    6.1221   23.7376 H         1 CMB         0.0763
     44 H12         6.6164    6.6960   25.2414 H         1 CMB         0.0763
     45 H13         8.6853    9.1283   23.2248 H         1 CMB         0.0557
     46 H14        10.9902    9.8008   23.9361 H         1 CMB         0.0599
     47 H15        12.0131    8.6890   25.9290 H         1 CMB         0.0559
     48 H16         8.4487    6.3447   26.4975 H         1 CMB         0.0557
     49 H17         9.0576    4.5318   17.9151 H         1 CMB         0.0564
     50 H18         8.1629    0.8834   19.9975 H         1 CMB         0.0571
     51 H19         6.0794    4.5194   21.0028 H         1 CMB         0.0564
     52 H20        12.3043    6.4366   28.8516 H         1 CMB         0.3181
     53 H21        12.7219    7.3620   27.3847 H         1 CMB         0.3181
     54 H22         8.8424    6.1967   27.9708 H         1 CMB         0.3181
     55 H23        10.0877    5.7117   29.1527 H         1 CMB         0.3181
@<TRIPOS>BOND
     1    1    2 ar 
     2    1    6 ar 
     3    2    3 ar 
     4    3    4 ar 
     5    3    7 1  
     6    4    5 ar 
     7    4    9 1  
     8    5    6 ar 
     9    5   10 1  
    10    7    8 1  
    11    7   15 1  
    12    8    9 2  
    13    8   11 1  
    14   11   12 am 
    15   11   31 2  
    16   12   13 1  
    17   13   14 1  
    18   14   22 ar 
    19   14   26 ar 
    20   15   16 1  
    21   16   17 ar 
    22   16   21 ar 
    23   17   18 ar 
    24   18   19 ar 
    25   19   20 ar 
    26   20   21 ar 
    27   20   27 1  
    28   22   23 ar 
    29   23   24 ar 
    30   23   29 1  
    31   24   25 ar 
    32   25   26 ar 
    33   25   30 1  
    34   27   28 ar 
    35   27   32 ar 
    36    1   33 1  
    37    2   34 1  
    38    6   35 1  
    39    9   36 1  
    40   10   37 1  
    41   10   38 1  
    42   10   39 1  
    43   12   40 1  
    44   13   41 1  
    45   13   42 1  
    46   15   43 1  
    47   15   44 1  
    48   17   45 1  
    49   18   46 1  
    50   19   47 1  
    51   21   48 1  
    52   22   49 1  
    53   24   50 1  
    54   26   51 1  
    55   28   52 1  
    56   28   53 1  
    57   32   54 1  
    58   32   55 1  
@<TRIPOS>SUBSTRUCTURE
     1 CMB         1

