### 
### Created by X-TOOL on Mon Sep 10 21:12:50 2018
### 

@<TRIPOS>MOLECULE
1lq2_ligand
   36    38     1     0     0
SMALL
GAST_HUCK


@<TRIPOS>ATOM
      1 C1         27.0460   29.5630   35.8810 C.ar      1 IDD        -0.0315
      2 C2         27.5870   29.9620   37.1400 C.ar      1 IDD        -0.0618
      3 C3         28.3160   31.1800   37.2430 C.ar      1 IDD        -0.0669
      4 C4         28.4970   31.9890   36.0980 C.ar      1 IDD        -0.0668
      5 C5         27.9580   31.5960   34.8520 C.ar      1 IDD        -0.0669
      6 C6         27.2380   30.3860   34.7450 C.ar      1 IDD        -0.0618
      7 C1B        25.3490   26.3270   36.3640 C.2       1 IDD         0.1503
      8 C2B        24.8550   25.1600   37.1860 C.3       1 IDD         0.1599
      9 C3B        24.0990   24.1090   36.3310 C.3       1 IDD         0.1257
     10 C4B        23.3960   24.7700   35.0930 C.3       1 IDD         0.1186
     11 C5B        24.4300   25.4400   34.1790 C.3       1 IDD         0.1215
     12 C6B        23.8720   26.1050   32.8640 C.3       1 IDD         0.0776
     13 O2B        25.9450   24.5620   37.8940 O.3       1 IDD        -0.3695
     14 O3B        23.1870   23.4890   37.1860 O.3       1 IDD        -0.3839
     15 O4B        22.6930   23.7450   34.3350 O.3       1 IDD        -0.3857
     16 N1B        25.1580   26.4640   35.0260 N.pl3     1 IDD        -0.2333
     17 O6B        23.0100   27.2450   33.1410 O.3       1 IDD        -0.3918
     18 N2B        26.0280   27.3800   36.8150 N.2       1 IDD        -0.3257
     19 C7B        26.2930   28.2460   35.7640 C.2       1 IDD         0.0133
     20 C8B        25.7480   27.6690   34.6640 C.2       1 IDD         0.0456
     21 H1         27.4431   29.3391   38.0154 H         1 IDD         0.0576
     22 H2         28.7311   31.4863   38.1964 H         1 IDD         0.0604
     23 H3         29.0526   32.9165   36.1761 H         1 IDD         0.0575
     24 H4         28.0972   32.2232   33.9789 H         1 IDD         0.0604
     25 H5         26.8296   30.0853   33.7869 H         1 IDD         0.0576
     26 H6         24.1447   25.5527   37.9285 H         1 IDD         0.0863
     27 H7         24.8137   23.3596   35.9600 H         1 IDD         0.0675
     28 H8         22.6780   25.5254   35.4450 H         1 IDD         0.0654
     29 H9         25.1468   24.6668   33.8654 H         1 IDD         0.0708
     30 H10        23.2949   25.3533   32.3055 H         1 IDD         0.0589
     31 H11        24.7208   26.4445   32.2522 H         1 IDD         0.0589
     32 H12        26.5539   24.1809   37.2723 H         1 IDD         0.2139
     33 H13        23.6530   23.1037   37.9187 H         1 IDD         0.2103
     34 H14        22.2555   24.1456   33.5930 H         1 IDD         0.2100
     35 H15        22.2693   26.9609   33.6637 H         1 IDD         0.2095
     36 H16        25.7694   28.0840   33.6574 H         1 IDD         0.0879
@<TRIPOS>BOND
     1    1    2 ar 
     2    1    6 ar 
     3   19    1 1  
     4    2    3 ar 
     5    3    4 ar 
     6    5    4 ar 
     7    6    5 ar 
     8    7    8 1  
     9    7   16 1  
    10   18    7 2  
    11    8    9 1  
    12    8   13 1  
    13    9   10 1  
    14    9   14 1  
    15   11   10 1  
    16   10   15 1  
    17   11   12 1  
    18   16   11 1  
    19   12   17 1  
    20   16   20 1  
    21   18   19 1  
    22   19   20 2  
    23    2   21 1  
    24    3   22 1  
    25    4   23 1  
    26    5   24 1  
    27    6   25 1  
    28    8   26 1  
    29    9   27 1  
    30   10   28 1  
    31   11   29 1  
    32   12   30 1  
    33   12   31 1  
    34   13   32 1  
    35   14   33 1  
    36   15   34 1  
    37   17   35 1  
    38   20   36 1  
@<TRIPOS>SUBSTRUCTURE
     1 IDD         1

