### 
### Created by X-TOOL on Mon Sep 10 21:12:49 2018
### 

@<TRIPOS>MOLECULE
1lqd_ligand
   61    64     1     0     0
SMALL
GAST_HUCK


@<TRIPOS>ATOM
      1 C1          3.9950    9.8270   26.0300 C.ar      1 CMI        -0.0818
      2 C2          5.1220    9.0170   25.7360 C.ar      1 CMI        -0.0479
      3 C3          5.4830    8.7740   24.3940 C.ar      1 CMI         0.0661
      4 C4          4.7220    9.3540   23.3370 C.ar      1 CMI        -0.0129
      5 C5          3.6250   10.1630   23.6360 C.ar      1 CMI        -0.0525
      6 C6          3.2440   10.3960   24.9770 C.ar      1 CMI        -0.0750
      7 N7          6.4910    8.0150   23.8430 N.pl3     1 CMI        -0.2444
      8 C8          6.4200    8.0830   22.4790 C.2       1 CMI         0.1335
      9 C9          5.3180    8.9120   22.1370 C.2       1 CMI        -0.0412
     10 C10         2.8670   10.8550   22.5810 C.3       1 CMI        -0.0337
     11 C11         7.3340    7.4780   21.5790 C.2       1 CMI         0.2265
     12 N12         6.8170    6.8980   20.4730 N.am      1 CMI        -0.2743
     13 C13         7.6720    6.1290   19.5650 C.3       1 CMI         0.0607
     14 C14         7.6970    4.6350   19.7800 C.ar      1 CMI        -0.0346
     15 C17         7.4060    7.1730   24.6290 C.3       1 CMI         0.0848
     16 C18         8.6510    7.8780   25.0410 C.ar      1 CMI        -0.0145
     17 C21         9.1340    9.0130   24.3640 C.ar      1 CMI        -0.0578
     18 C22        10.3580    9.5810   24.7100 C.ar      1 CMI        -0.0685
     19 C23        11.0850    9.0040   25.7540 C.ar      1 CMI        -0.0635
     20 C24        10.5980    7.8850   26.4720 C.ar      1 CMI         0.0193
     21 C25         9.3620    7.3300   26.1050 C.ar      1 CMI        -0.0526
     22 C26         8.5200    3.8950   18.9260 C.ar      1 CMI        -0.0644
     23 C27         8.6650    2.5220   19.1280 C.ar      1 CMI        -0.0595
     24 C28         7.9680    1.8700   20.1460 C.ar      1 CMI        -0.0666
     25 C29         7.1220    2.5790   20.9880 C.ar      1 CMI        -0.0595
     26 C30         6.9850    3.9750   20.8130 C.ar      1 CMI        -0.0644
     27 C31        11.3900    7.2820   27.5660 C.cat     1 CMI         0.2340
     28 N32        12.6920    7.5590   27.7040 N.pl3     1 CMI        -0.2722
     29 C33         9.6010    1.7610   18.3000 C.3       1 CMI        -0.0343
     30 C37         6.3970    1.8470   22.0430 C.3       1 CMI        -0.0343
     31 O45         8.5510    7.5220   21.7870 O.2       1 CMI        -0.3855
     32 N53        10.8420    6.4280   28.4260 N.pl3     1 CMI        -0.2722
     33 H1          3.7107   10.0090   27.0601 H         1 CMI         0.0532
     34 H2          5.7050    8.5853   26.5415 H         1 CMI         0.0483
     35 H3          2.3779   11.0096   25.1971 H         1 CMI         0.0448
     36 H4          4.9916    9.1617   21.1285 H         1 CMI         0.0398
     37 H5          3.2733   10.5792   21.5967 H         1 CMI         0.0392
     38 H6          2.9526   11.9426   22.7213 H         1 CMI         0.0392
     39 H7          1.8087   10.5603   22.6365 H         1 CMI         0.0392
     40 H8          5.8421    6.9946   20.2726 H         1 CMI         0.1868
     41 H9          8.7010    6.5015   19.6765 H         1 CMI         0.0680
     42 H10         7.3240    6.3147   18.5382 H         1 CMI         0.0680
     43 H11         7.6847    6.2994   24.0214 H         1 CMI         0.0763
     44 H12         6.8796    6.8370   25.5345 H         1 CMI         0.0763
     45 H13         8.5471    9.4502   23.5643 H         1 CMI         0.0557
     46 H14        10.7368   10.4489   24.1824 H         1 CMI         0.0599
     47 H15        12.0478    9.4242   26.0216 H         1 CMI         0.0559
     48 H16         8.9636    6.4798   26.6468 H         1 CMI         0.0557
     49 H17         9.0422    4.3847   18.1120 H         1 CMI         0.0439
     50 H18         8.0881    0.8011   20.2805 H         1 CMI         0.0438
     51 H19         6.3346    4.5416   21.4696 H         1 CMI         0.0439
     52 H20        13.2310    7.1317   28.4707 H         1 CMI         0.3181
     53 H21        13.1551    8.1995   27.0435 H         1 CMI         0.3181
     54 H22        10.0573    2.4286   17.5543 H         1 CMI         0.0389
     55 H23         9.0616    0.9516   17.7862 H         1 CMI         0.0389
     56 H24        10.3878    1.3307   18.9370 H         1 CMI         0.0389
     57 H25         6.6550    0.7789   21.9917 H         1 CMI         0.0389
     58 H26         5.3138    1.9699   21.8964 H         1 CMI         0.0389
     59 H27         6.6814    2.2460   23.0278 H         1 CMI         0.0389
     60 H28         9.8425    6.1910   28.3503 H         1 CMI         0.3181
     61 H29        11.4172    6.0036   29.1676 H         1 CMI         0.3181
@<TRIPOS>BOND
     1    1    2 ar 
     2    1    6 ar 
     3    2    3 ar 
     4    3    4 ar 
     5    3    7 1  
     6    4    5 ar 
     7    4    9 1  
     8    5    6 ar 
     9    5   10 1  
    10    7    8 1  
    11    7   15 1  
    12    8    9 2  
    13    8   11 1  
    14   11   12 am 
    15   11   31 2  
    16   12   13 1  
    17   13   14 1  
    18   14   22 ar 
    19   14   26 ar 
    20   15   16 1  
    21   16   17 ar 
    22   16   21 ar 
    23   17   18 ar 
    24   18   19 ar 
    25   19   20 ar 
    26   20   21 ar 
    27   20   27 1  
    28   22   23 ar 
    29   23   24 ar 
    30   23   29 1  
    31   24   25 ar 
    32   25   26 ar 
    33   25   30 1  
    34   27   28 ar 
    35   27   32 ar 
    36    1   33 1  
    37    2   34 1  
    38    6   35 1  
    39    9   36 1  
    40   10   37 1  
    41   10   38 1  
    42   10   39 1  
    43   12   40 1  
    44   13   41 1  
    45   13   42 1  
    46   15   43 1  
    47   15   44 1  
    48   17   45 1  
    49   18   46 1  
    50   19   47 1  
    51   21   48 1  
    52   22   49 1  
    53   24   50 1  
    54   26   51 1  
    55   28   52 1  
    56   28   53 1  
    57   29   54 1  
    58   29   55 1  
    59   29   56 1  
    60   30   57 1  
    61   30   58 1  
    62   30   59 1  
    63   32   60 1  
    64   32   61 1  
@<TRIPOS>SUBSTRUCTURE
     1 CMI         1

