### 
### Created by X-TOOL on Mon Sep 10 21:12:49 2018
### 

@<TRIPOS>MOLECULE
1lqe_ligand
   64    67     1     0     0
SMALL
GAST_HUCK


@<TRIPOS>ATOM
      1 C11        19.5150    6.9410   32.1460 C.ar      1 IMA        -0.0763
      2 C12        19.5270    7.1310   30.7400 C.ar      1 IMA        -0.0739
      3 C13        20.3170    6.3180   29.9190 C.ar      1 IMA        -0.0401
      4 C14        21.1170    5.3200   30.5040 C.ar      1 IMA         0.0722
      5 C15        21.1490    5.1150   31.9240 C.ar      1 IMA        -0.0173
      6 C16        20.3250    5.9390   32.7460 C.ar      1 IMA        -0.0711
      7 C17        22.0850    4.0790   32.1910 C.2       1 IMA        -0.0389
      8 N18        21.9960    4.4270   29.9650 N.pl3     1 IMA        -0.2412
      9 C19        22.5900    3.6990   30.9250 C.2       1 IMA         0.1365
     10 C20        22.1110    4.1210   28.5670 C.3       1 IMA         0.0855
     11 C21        23.6260    2.7910   30.6180 C.2       1 IMA         0.2294
     12 N22        24.8580    2.9790   31.1060 N.am      1 IMA        -0.2708
     13 C23        25.7630    1.8360   31.0880 C.3       1 IMA         0.0708
     14 C24        26.9050    2.0080   30.1040 C.ar      1 IMA        -0.0062
     15 O27        23.4660    1.7930   29.6200 O.2       1 IMA        -0.3839
     16 C28        20.9470    3.3010   28.1190 C.ar      1 IMA        -0.0144
     17 C31        19.5690    3.0770   26.1630 C.ar      1 IMA         0.0193
     18 C32        20.5050    3.7710   26.9000 C.ar      1 IMA        -0.0526
     19 C33        20.3720    2.1460   28.7280 C.ar      1 IMA        -0.0578
     20 C34        19.4040    1.4170   27.9680 C.ar      1 IMA        -0.0685
     21 C35        19.0190    1.8670   26.6690 C.ar      1 IMA        -0.0635
     22 C36        19.3260    3.7140   24.8750 C.cat     1 IMA         0.2340
     23 N37        19.5020    5.0390   24.7510 N.pl3     1 IMA        -0.2722
     24 N38        18.9960    2.9600   23.8200 N.pl3     1 IMA        -0.2722
     25 C39        28.0690    3.0930   28.2700 C.ar      1 IMA        -0.0198
     26 C40        29.1510    2.1580   28.3840 C.ar      1 IMA         0.0026
     27 C41        29.0950    1.1910   29.4200 C.ar      1 IMA        -0.0198
     28 C42        27.9710    1.1070   30.2490 C.ar      1 IMA        -0.0411
     29 C43        26.9470    3.0220   29.1230 C.ar      1 IMA        -0.0411
     30 N44        30.2840    2.1270   27.4630 N.4       1 IMA         0.3999
     31 C45        30.3200    0.8860   26.6670 C.3       1 IMA        -0.0457
     32 C49        31.5800    2.2060   28.1560 C.3       1 IMA        -0.0457
     33 C53        30.3550    3.2500   26.5230 C.3       1 IMA        -0.0457
     34 H1         18.8830    7.5650   32.7675 H         1 IMA         0.0522
     35 H2         18.9193    7.9123   30.2980 H         1 IMA         0.0550
     36 H3         20.3123    6.4561   28.8438 H         1 IMA         0.0550
     37 H4         20.3165    5.8021   33.8213 H         1 IMA         0.0556
     38 H5         22.3554    3.6663   33.1618 H         1 IMA         0.0399
     39 H6         23.0398    3.5576   28.3940 H         1 IMA         0.0764
     40 H7         22.1378    5.0580   27.9914 H         1 IMA         0.0764
     41 H8         25.1456    3.8658   31.4676 H         1 IMA         0.1875
     42 H9         25.1909    0.9387   30.8096 H         1 IMA         0.0722
     43 H10        26.1838    1.7046   32.0958 H         1 IMA         0.0722
     44 H11        20.9009    4.7034   26.5142 H         1 IMA         0.0557
     45 H12        20.6571    1.8336   29.7261 H         1 IMA         0.0557
     46 H13        18.9604    0.5181   28.3806 H         1 IMA         0.0599
     47 H14        18.3161    1.2935   26.0756 H         1 IMA         0.0559
     48 H15        19.7559    5.6040   25.5739 H         1 IMA         0.3181
     49 H16        19.3832    5.4906   23.8330 H         1 IMA         0.3181
     50 H17        18.8649    1.9447   23.9335 H         1 IMA         0.3181
     51 H18        18.8731    3.3949   22.8944 H         1 IMA         0.3181
     52 H19        28.1141    3.8688   27.5143 H         1 IMA         0.0710
     53 H20        29.9276    0.5133   29.5704 H         1 IMA         0.0710
     54 H21        27.9231    0.3378   31.0113 H         1 IMA         0.0608
     55 H22        26.1336    3.7321   29.0267 H         1 IMA         0.0608
     56 H23        31.1874    0.9091   25.9909 H         1 IMA         0.0582
     57 H24        29.3963    0.8028   26.0756 H         1 IMA         0.0582
     58 H25        30.4033    0.0205   27.3407 H         1 IMA         0.0582
     59 H26        31.6124    3.1180   28.7701 H         1 IMA         0.0582
     60 H27        32.3915    2.2347   27.4139 H         1 IMA         0.0582
     61 H28        31.7048    1.3244   28.8020 H         1 IMA         0.0582
     62 H29        29.4258    3.2962   25.9362 H         1 IMA         0.0582
     63 H30        31.2098    3.1076   25.8455 H         1 IMA         0.0582
     64 H31        30.4826    4.1887   27.0821 H         1 IMA         0.0582
@<TRIPOS>BOND
     1    2    1 ar 
     2    6    1 ar 
     3    3    2 ar 
     4    4    3 ar 
     5    4    5 ar 
     6    8    4 1  
     7    5    6 ar 
     8    7    5 1  
     9    9    7 2  
    10    8    9 1  
    11   10    8 1  
    12    9   11 1  
    13   16   10 1  
    14   11   12 am 
    15   11   15 2  
    16   12   13 1  
    17   13   14 1  
    18   14   28 ar 
    19   14   29 ar 
    20   16   18 ar 
    21   19   16 ar 
    22   20   19 ar 
    23   21   20 ar 
    24   22   23 ar 
    25   22   24 ar 
    26   25   26 ar 
    27   29   25 ar 
    28   27   26 ar 
    29   26   30 1  
    30   28   27 ar 
    31   30   31 1  
    32   30   32 1  
    33   30   33 1  
    34   17   22 1  
    35   21   17 ar 
    36   18   17 ar 
    37    1   34 1  
    38    2   35 1  
    39    3   36 1  
    40    6   37 1  
    41    7   38 1  
    42   10   39 1  
    43   10   40 1  
    44   12   41 1  
    45   13   42 1  
    46   13   43 1  
    47   18   44 1  
    48   19   45 1  
    49   20   46 1  
    50   21   47 1  
    51   23   48 1  
    52   23   49 1  
    53   24   50 1  
    54   24   51 1  
    55   25   52 1  
    56   27   53 1  
    57   28   54 1  
    58   29   55 1  
    59   31   56 1  
    60   31   57 1  
    61   31   58 1  
    62   32   59 1  
    63   32   60 1  
    64   32   61 1  
    65   33   62 1  
    66   33   63 1  
    67   33   64 1  
@<TRIPOS>SUBSTRUCTURE
     1 IMA         1

