### 
### Created by X-TOOL on Sun Sep  9 21:50:03 2018
### 

@<TRIPOS>MOLECULE
1lrh_ligand
   23    24     1     0     0
SMALL
GAST_HUCK


@<TRIPOS>ATOM
      1 C1         67.0620   41.4120   23.3770 C.ar      1 NON        -0.0106
      2 C2         67.3560   41.0350   24.7090 C.ar      1 NON        -0.0196
      3 C3         68.6830   41.0750   25.1790 C.ar      1 NON        -0.0590
      4 C4         69.7240   41.4490   24.2940 C.ar      1 NON        -0.0704
      5 C5         69.4720   41.8320   23.0220 C.ar      1 NON        -0.0629
      6 C6         68.1620   41.8330   22.5090 C.ar      1 NON        -0.0240
      7 C7         67.8870   42.1940   21.1380 C.ar      1 NON        -0.0569
      8 C8         66.5860   42.1760   20.6710 C.ar      1 NON        -0.0629
      9 C9         65.5030   41.7940   21.5090 C.ar      1 NON        -0.0625
     10 C10        65.7230   41.4250   22.8310 C.ar      1 NON        -0.0547
     11 C11        66.2660   40.6060   25.7450 C.3       1 NON         0.0358
     12 C12        66.7580   39.6240   26.7270 C.2       1 NON         0.0473
     13 O1         66.8010   38.3250   26.4730 O.co2     1 NON        -0.5661
     14 O2         67.2210   40.1640   27.8410 O.co2     1 NON        -0.5661
     15 H1         68.9059   40.8218   26.2092 H         1 NON         0.0533
     16 H2         70.7491   41.4276   24.6457 H         1 NON         0.0595
     17 H3         70.2932   42.1436   22.3867 H         1 NON         0.0544
     18 H4         68.6981   42.4781   20.4773 H         1 NON         0.0609
     19 H5         66.3873   42.4593   19.6437 H         1 NON         0.0616
     20 H6         64.4941   41.7904   21.1125 H         1 NON         0.0601
     21 H7         64.8841   41.1447   23.4577 H         1 NON         0.0628
     22 H8         65.4199   40.1623   25.1998 H         1 NON         0.0601
     23 H9         65.9250   41.5012   26.2856 H         1 NON         0.0601
@<TRIPOS>BOND
     1    1   10 ar 
     2    1    6 ar 
     3    1    2 ar 
     4    2   11 1  
     5    2    3 ar 
     6    3    4 ar 
     7    4    5 ar 
     8    6    5 ar 
     9    6    7 ar 
    10    7    8 ar 
    11    8    9 ar 
    12    9   10 ar 
    13   11   12 1  
    14   12   14 ar 
    15   12   13 ar 
    16    3   15 1  
    17    4   16 1  
    18    5   17 1  
    19    7   18 1  
    20    8   19 1  
    21    9   20 1  
    22   10   21 1  
    23   11   22 1  
    24   11   23 1  
@<TRIPOS>SUBSTRUCTURE
     1 NON         1

