### 
### Created by X-TOOL on Mon Sep 10 21:12:45 2018
### 

@<TRIPOS>MOLECULE
1lst_ligand
   25    24     1     0     0
SMALL
GAST_HUCK


@<TRIPOS>ATOM
      1 N          18.6630   58.2310   45.7710 N.4       1 LYS         0.2327
      2 CA         18.7290   57.4460   46.9820 C.3       1 LYS         0.0283
      3 C          18.1410   58.2870   48.1410 C.2       1 LYS         0.0844
      4 O          18.0400   57.7970   49.2670 O.co2     1 LYS        -0.5643
      5 CB         20.1830   57.0870   47.2580 C.3       1 LYS         0.0026
      6 CG         21.1600   58.2480   47.2380 C.3       1 LYS        -0.0416
      7 CD         22.4420   57.7740   47.8560 C.3       1 LYS        -0.0123
      8 CE         23.5210   58.8140   47.6670 C.3       1 LYS        -0.0354
      9 NZ         24.7560   58.4420   48.3590 N.4       1 LYS         0.2185
     10 OXT        17.7910   59.4530   47.9000 O.co2     1 LYS        -0.5643
     11 H1         19.0424   57.6981   45.0041 H         1 LYS         0.2010
     12 H2         19.1980   59.0770   45.8894 H         1 LYS         0.2010
     13 H3         17.7026   58.4655   45.5745 H         1 LYS         0.2010
     14 H4         18.1414   56.5238   46.8626 H         1 LYS         0.1024
     15 H5         20.5033   56.3620   46.4953 H         1 LYS         0.0339
     16 H6         20.2333   56.6195   48.2524 H         1 LYS         0.0339
     17 H7         20.7535   59.0901   47.8173 H         1 LYS         0.0270
     18 H8         21.3398   58.5689   46.2013 H         1 LYS         0.0270
     19 H9         22.7530   56.8348   47.3752 H         1 LYS         0.0317
     20 H10        22.2864   57.6016   48.9312 H         1 LYS         0.0317
     21 H11        23.1641   59.7750   48.0658 H         1 LYS         0.0813
     22 H12        23.7317   58.9184   46.5924 H         1 LYS         0.0813
     23 H13        25.4518   59.1563   48.2118 H         1 LYS         0.1994
     24 H14        25.0934   57.5643   47.9958 H         1 LYS         0.1994
     25 H15        24.5733   58.3493   49.3460 H         1 LYS         0.1994
@<TRIPOS>BOND
     1    1    2 1  
     2    2    3 1  
     3    2    5 1  
     4    3    4 ar 
     5    3   10 ar 
     6    5    6 1  
     7    6    7 1  
     8    7    8 1  
     9    8    9 1  
    10    1   11 1  
    11    1   12 1  
    12    1   13 1  
    13    2   14 1  
    14    5   15 1  
    15    5   16 1  
    16    6   17 1  
    17    6   18 1  
    18    7   19 1  
    19    7   20 1  
    20    8   21 1  
    21    8   22 1  
    22    9   23 1  
    23    9   24 1  
    24    9   25 1  
@<TRIPOS>SUBSTRUCTURE
     1 LYS         1

