### 
### Created by X-TOOL on Mon Sep 10 21:12:45 2018
### 

@<TRIPOS>MOLECULE
1lt5_ligand
   45    46     1     0     0
SMALL
GAST_HUCK


@<TRIPOS>ATOM
      1 C1         23.8310   -5.1320   -0.4190 C.3       1 TDG         0.1353
      2 S1         25.6140   -5.2320   -0.0350 S.3       1 TDG        -0.0931
      3 C2         23.3850   -6.4430   -1.0030 C.3       1 TDG         0.1189
      4 O2         24.0640   -6.7730   -2.1890 O.3       1 TDG        -0.3857
      5 C3         21.8720   -6.4240   -1.2460 C.3       1 TDG         0.1126
      6 O3         21.5310   -7.7380   -1.6810 O.3       1 TDG        -0.3865
      7 C4         21.1660   -6.0940    0.0760 C.3       1 TDG         0.1118
      8 O4         21.3640   -7.1440    1.0200 O.3       1 TDG        -0.3865
      9 C5         21.7210   -4.7950    0.6420 C.3       1 TDG         0.1115
     10 O5         23.1260   -4.9240    0.8140 O.3       1 TDG        -0.3552
     11 C6         21.1350   -4.4360    2.0030 C.3       1 TDG         0.0730
     12 O6         21.7830   -3.2710    2.4680 O.3       1 TDG        -0.3924
     13 C1'        25.8750   -3.5870    0.6420 C.3       1 TDG         0.1353
     14 C2'        27.3250   -3.4440    1.1010 C.3       1 TDG         0.1189
     15 O2'        27.7070   -4.4170    2.0490 O.3       1 TDG        -0.3857
     16 C3'        27.5230   -2.0550    1.6760 C.3       1 TDG         0.1126
     17 O3'        28.8890   -1.8810    2.0370 O.3       1 TDG        -0.3865
     18 C4'        27.0650   -1.0000    0.5970 C.3       1 TDG         0.1118
     19 O4'        27.9630   -1.0720   -0.5020 O.3       1 TDG        -0.3865
     20 C5'        25.5980   -1.3080    0.1220 C.3       1 TDG         0.1115
     21 O5'        25.6080   -2.6460   -0.4030 O.3       1 TDG        -0.3552
     22 C6'        24.9890   -0.3450   -0.9070 C.3       1 TDG         0.0730
     23 O6'        23.6660   -0.7600   -1.1880 O.3       1 TDG        -0.3924
     24 H1         23.6330   -4.3102   -1.1229 H         1 TDG         0.0740
     25 H2         23.6039   -7.2284   -0.2647 H         1 TDG         0.0655
     26 H3         23.8642   -6.1277   -2.8570 H         1 TDG         0.2100
     27 H4         21.6050   -5.6810   -2.0119 H         1 TDG         0.0647
     28 H5         21.9761   -7.9250   -2.4991 H         1 TDG         0.2100
     29 H6         20.0885   -5.9769   -0.1117 H         1 TDG         0.0647
     30 H7         21.0176   -7.9552    0.6670 H         1 TDG         0.2100
     31 H8         21.5049   -3.9823   -0.0671 H         1 TDG         0.0646
     32 H9         21.3015   -5.2621    2.7099 H         1 TDG         0.0584
     33 H10        20.0555   -4.2482    1.9060 H         1 TDG         0.0584
     34 H11        22.7148   -3.4383    2.5467 H         1 TDG         0.2095
     35 H12        25.1975   -3.4141    1.4912 H         1 TDG         0.0740
     36 H13        27.9745   -3.5576    0.2205 H         1 TDG         0.0655
     37 H14        28.6227   -4.2978    2.2720 H         1 TDG         0.2100
     38 H15        26.9015   -1.9392    2.5762 H         1 TDG         0.0647
     39 H16        29.1291   -2.5315    2.6864 H         1 TDG         0.2100
     40 H17        27.0978    0.0094    1.0329 H         1 TDG         0.0647
     41 H18        27.7087   -0.4353   -1.1595 H         1 TDG         0.2100
     42 H19        24.9494   -1.2787    1.0099 H         1 TDG         0.0646
     43 H20        25.5867   -0.3632   -1.8302 H         1 TDG         0.0584
     44 H21        24.9777    0.6758   -0.4975 H         1 TDG         0.0584
     45 H22        23.6800   -1.6424   -1.5395 H         1 TDG         0.2095
@<TRIPOS>BOND
     1    1   10 1  
     2    1    3 1  
     3    1    2 1  
     4    2   13 1  
     5   13   21 1  
     6   13   14 1  
     7   14   16 1  
     8   14   15 1  
     9   16   18 1  
    10   16   17 1  
    11   18   20 1  
    12   18   19 1  
    13   20   22 1  
    14   20   21 1  
    15   22   23 1  
    16    3    5 1  
    17    3    4 1  
    18    5    7 1  
    19    5    6 1  
    20    7    9 1  
    21    7    8 1  
    22    9   11 1  
    23    9   10 1  
    24   11   12 1  
    25    1   24 1  
    26    3   25 1  
    27    4   26 1  
    28    5   27 1  
    29    6   28 1  
    30    7   29 1  
    31    8   30 1  
    32    9   31 1  
    33   11   32 1  
    34   11   33 1  
    35   12   34 1  
    36   13   35 1  
    37   14   36 1  
    38   15   37 1  
    39   16   38 1  
    40   17   39 1  
    41   18   40 1  
    42   19   41 1  
    43   20   42 1  
    44   22   43 1  
    45   22   44 1  
    46   23   45 1  
@<TRIPOS>SUBSTRUCTURE
     1 TDG         1

