### 
### Created by X-TOOL on Mon Sep 10 21:12:45 2018
### 

@<TRIPOS>MOLECULE
1lt6_ligand
   36    37     1     0     0
SMALL
GAST_HUCK


@<TRIPOS>ATOM
      1 C1         11.1940   23.2410   -4.1540 C.3       1 GAA         0.2096
      2 C2         10.0240   24.0030   -3.4650 C.3       1 GAA         0.1385
      3 C3         10.0330   23.8170   -1.9450 C.3       1 GAA         0.1145
      4 C4         10.1110   22.3190   -1.5860 C.3       1 GAA         0.1119
      5 C5         11.3440   21.7020   -2.2930 C.3       1 GAA         0.1134
      6 C6         11.4570   20.2600   -1.9690 C.3       1 GAA         0.0730
      7 C7         13.5350   23.5560   -4.4850 C.ar      1 GAA         0.1022
      8 C8         14.2390   22.5180   -3.9040 C.ar      1 GAA         0.0095
      9 C9         15.4070   22.0830   -4.5400 C.ar      1 GAA         0.1910
     10 C10        15.7980   22.7370   -5.7470 C.ar      1 GAA        -0.0300
     11 C11        15.0490   23.7920   -6.2940 C.ar      1 GAA        -0.0624
     12 C12        13.8850   24.2080   -5.6490 C.ar      1 GAA        -0.0276
     13 N1         16.1910   20.9800   -3.9890 N.2       1 GAA         0.3122
     14 O1         12.3550   23.9760   -3.8220 O.3       1 GAA        -0.2838
     15 O2         10.0340   25.4040   -3.6830 O.3       1 GAA        -0.3837
     16 O3          8.8350   24.3640   -1.5150 O.3       1 GAA        -0.3864
     17 O4          8.9200   21.6210   -1.9280 O.3       1 GAA        -0.3865
     18 O5         11.2540   21.8450   -3.7610 O.3       1 GAA        -0.3369
     19 O6         12.6120   19.7720   -2.6080 O.3       1 GAA        -0.3924
     20 O7         17.2260   20.5600   -4.5470 O.2       1 GAA         0.1781
     21 O8         15.8550   20.4080   -2.9320 O.2       1 GAA         0.1781
     22 H1         11.0524   23.2713   -5.2444 H         1 GAA         0.0993
     23 H2          9.0859   23.5943   -3.8685 H         1 GAA         0.0675
     24 H3         10.8847   24.3472   -1.4938 H         1 GAA         0.0648
     25 H4         10.2519   22.2314   -0.4986 H         1 GAA         0.0647
     26 H5         12.2461   22.2224   -1.9391 H         1 GAA         0.0647
     27 H6         10.5699   19.7222   -2.3348 H         1 GAA         0.0584
     28 H7         11.5446   20.1253   -0.8808 H         1 GAA         0.0584
     29 H8         13.8972   22.0557   -2.9850 H         1 GAA         0.0614
     30 H9         16.6979   22.4105   -6.2556 H         1 GAA         0.0598
     31 H10        15.3725   24.2774   -7.2077 H         1 GAA         0.0604
     32 H11        13.2782   25.0132   -6.0472 H         1 GAA         0.0586
     33 H12        10.8429   25.7702   -3.3452 H         1 GAA         0.2101
     34 H13         8.8020   25.2818   -1.7579 H         1 GAA         0.2100
     35 H14         8.1864   21.9995   -1.4579 H         1 GAA         0.2100
     36 H15        12.5300   19.8965   -3.5462 H         1 GAA         0.2095
@<TRIPOS>BOND
     1    1   18 1  
     2    1   14 1  
     3    1    2 1  
     4    2   15 1  
     5    2    3 1  
     6    3   16 1  
     7    3    4 1  
     8    4   17 1  
     9    4    5 1  
    10    5   18 1  
    11    5    6 1  
    12    6   19 1  
    13   14    7 1  
    14    7   12 ar 
    15    7    8 ar 
    16    8    9 ar 
    17    9   13 1  
    18    9   10 ar 
    19   10   11 ar 
    20   11   12 ar 
    21   13   21 2  
    22   13   20 2  
    23    1   22 1  
    24    2   23 1  
    25    3   24 1  
    26    4   25 1  
    27    5   26 1  
    28    6   27 1  
    29    6   28 1  
    30    8   29 1  
    31   10   30 1  
    32   11   31 1  
    33   12   32 1  
    34   15   33 1  
    35   16   34 1  
    36   17   35 1  
    37   19   36 1  
@<TRIPOS>SUBSTRUCTURE
     1 GAA         1

