### 
### Created by X-TOOL on Mon Sep 10 21:12:49 2018
### 

@<TRIPOS>MOLECULE
1lxf_ligand
   62    64     1     0     0
SMALL
GAST_HUCK


@<TRIPOS>ATOM
      1 C1         90.7040    3.1330   -0.0780 C.3       1 BEP         0.0922
      2 C2         90.1600    2.1200   -1.0890 C.3       1 BEP         0.0231
      3 C3         89.0790    1.1960   -0.4220 C.3       1 BEP         0.0739
      4 O1         92.1100    2.8750    0.1660 O.3       1 BEP        -0.3739
      5 N2         91.2680    1.2990   -1.6540 N.4       1 BEP         0.2404
      6 N3         87.7150    1.7930   -0.5160 N.pl3     1 BEP        -0.2921
      7 C4         92.9480    4.0560    0.2400 C.3       1 BEP         0.0502
      8 C5         93.8870    3.9380    1.4430 C.3       1 BEP        -0.0232
      9 C6         95.2620    4.4970    1.0720 C.3       1 BEP        -0.0606
     10 C7         94.0250    2.4670    1.8440 C.3       1 BEP        -0.0606
     11 C8         92.3640    1.9960   -2.3810 C.3       1 BEP        -0.0313
     12 C9         93.6490    1.2360   -2.0080 C.3       1 BEP        -0.0077
     13 C10        93.1440   -0.1190   -1.4920 C.3       1 BEP        -0.0077
     14 C11        91.8310    0.2180   -0.8120 C.3       1 BEP        -0.0313
     15 C12        86.8460    1.7290    0.6920 C.3       1 BEP         0.0605
     16 C13        87.1300    2.7650    1.8090 C.ar      1 BEP        -0.0216
     17 C14        87.4250    2.3320    3.1080 C.ar      1 BEP        -0.0584
     18 C15        87.6820    3.2680    4.1170 C.ar      1 BEP        -0.0685
     19 C16        87.6440    4.6380    3.8270 C.ar      1 BEP        -0.0687
     20 C17        87.3490    5.0720    2.5280 C.ar      1 BEP        -0.0685
     21 C18        87.0910    4.1350    1.5190 C.ar      1 BEP        -0.0584
     22 C19        87.0290    1.6650   -1.8220 C.ar      1 BEP         0.0422
     23 C20        87.3110    2.5710   -2.8540 C.ar      1 BEP        -0.0442
     24 C21        86.6610    2.4500   -4.0890 C.ar      1 BEP        -0.0737
     25 C22        85.7310    1.4230   -4.2920 C.ar      1 BEP        -0.0751
     26 C23        85.4490    0.5170   -3.2620 C.ar      1 BEP        -0.0737
     27 C24        86.0990    0.6370   -2.0270 C.ar      1 BEP        -0.0442
     28 H1         90.1467    3.0424    0.8660 H         1 BEP         0.0617
     29 H2         90.5834    4.1502   -0.4789 H         1 BEP         0.0617
     30 H3         89.6834    2.6734   -1.9116 H         1 BEP         0.0894
     31 H4         89.3348    1.0548    0.6385 H         1 BEP         0.0572
     32 H5         89.0783    0.2214   -0.9320 H         1 BEP         0.0572
     33 H6         90.7926    0.7953   -2.3864 H         1 BEP         0.2038
     34 H7         92.3153    4.9485    0.3544 H         1 BEP         0.0562
     35 H8         93.5417    4.1432   -0.6819 H         1 BEP         0.0562
     36 H9         93.4744    4.5101    2.2870 H         1 BEP         0.0318
     37 H10        95.9374    4.4125    1.9361 H         1 BEP         0.0233
     38 H11        95.1629    5.5546    0.7861 H         1 BEP         0.0233
     39 H12        95.6743    3.9258    0.2272 H         1 BEP         0.0233
     40 H13        93.0363    2.0654    2.1107 H         1 BEP         0.0233
     41 H14        94.6997    2.3844    2.7088 H         1 BEP         0.0233
     42 H15        94.4381    1.8942    1.0006 H         1 BEP         0.0233
     43 H16        92.4313    3.0462   -2.0609 H         1 BEP         0.0814
     44 H17        92.1934    1.9539   -3.4669 H         1 BEP         0.0814
     45 H18        94.2053    1.7701   -1.2236 H         1 BEP         0.0319
     46 H19        94.2940    1.1029   -2.8890 H         1 BEP         0.0319
     47 H20        93.8555   -0.5551   -0.7754 H         1 BEP         0.0319
     48 H21        92.9853   -0.8206   -2.3242 H         1 BEP         0.0319
     49 H22        91.1622   -0.6552   -0.7954 H         1 BEP         0.0814
     50 H23        92.0006    0.5696    0.2164 H         1 BEP         0.0814
     51 H24        86.9583    0.7266    1.1307 H         1 BEP         0.0677
     52 H25        85.8061    1.8707    0.3625 H         1 BEP         0.0677
     53 H26        87.4543    1.2718    3.3322 H         1 BEP         0.0557
     54 H27        87.9103    2.9327    5.1222 H         1 BEP         0.0599
     55 H28        87.8430    5.3628    4.6082 H         1 BEP         0.0559
     56 H29        87.3204    6.1322    2.3038 H         1 BEP         0.0599
     57 H30        86.8612    4.4700    0.5140 H         1 BEP         0.0557
     58 H31        88.0319    3.3650   -2.6963 H         1 BEP         0.0515
     59 H32        86.8778    3.1509   -4.8870 H         1 BEP         0.0583
     60 H33        85.2285    1.3291   -5.2479 H         1 BEP         0.0505
     61 H34        84.7280   -0.2768   -3.4204 H         1 BEP         0.0583
     62 H35        85.8827   -0.0652   -1.2300 H         1 BEP         0.0515
@<TRIPOS>BOND
     1    1    2 1  
     2    1    4 1  
     3    1   28 1  
     4    1   29 1  
     5    2    3 1  
     6    2    5 1  
     7    2   30 1  
     8    3    6 1  
     9    3   31 1  
    10    3   32 1  
    11    4    7 1  
    12    5   11 1  
    13    5   14 1  
    14    6   15 1  
    15    6   22 1  
    16    7    8 1  
    17    5   33 1  
    18    7   34 1  
    19    8    9 1  
    20    8   10 1  
    21    7   35 1  
    22    8   36 1  
    23    9   37 1  
    24    9   38 1  
    25    9   39 1  
    26   10   40 1  
    27   10   41 1  
    28   11   12 1  
    29   10   42 1  
    30   11   43 1  
    31   12   13 1  
    32   11   44 1  
    33   12   45 1  
    34   13   14 1  
    35   12   46 1  
    36   13   47 1  
    37   13   48 1  
    38   14   49 1  
    39   15   16 1  
    40   14   50 1  
    41   15   51 1  
    42   16   17 ar 
    43   16   21 ar 
    44   17   18 ar 
    45   15   52 1  
    46   18   19 ar 
    47   17   53 1  
    48   19   20 ar 
    49   18   54 1  
    50   20   21 ar 
    51   19   55 1  
    52   20   56 1  
    53   22   23 ar 
    54   22   27 ar 
    55   23   24 ar 
    56   21   57 1  
    57   24   25 ar 
    58   23   58 1  
    59   25   26 ar 
    60   24   59 1  
    61   26   27 ar 
    62   25   60 1  
    63   26   61 1  
    64   27   62 1  
@<TRIPOS>SUBSTRUCTURE
     1 BEP         1

