### 
### Created by X-TOOL on Mon Sep 10 21:12:45 2018
### 

@<TRIPOS>MOLECULE
1lyb_ligand
  110   109     1     0     0
SMALL
GAST_HUCK


@<TRIPOS>ATOM
      1 CA         24.2380   89.5030    4.5820 C.3       1 IVA         0.0397
      2 CB         24.4390   88.1400    3.9450 C.3       1 IVA        -0.0298
      3 CG1        24.8070   88.3800    2.4910 C.3       1 IVA        -0.0606
      4 CG2        25.5560   87.3460    4.6120 C.3       1 IVA        -0.0606
      5 C          23.1110   89.5010    5.6010 C.2       1 IVA         0.1785
      6 O          23.0250   88.5750    6.3950 O.2       1 IVA        -0.3969
      7 N          22.2600   90.5380    5.5580 N.am      1 VAL        -0.2654
      8 CA         21.1750   90.8440    6.4950 C.3       1 VAL         0.1332
      9 C          21.8540   91.5580    7.6520 C.2       1 VAL         0.2042
     10 O          22.7770   91.0870    8.3380 O.2       1 VAL        -0.3944
     11 CB         20.3940   89.5530    6.9790 C.3       1 VAL        -0.0063
     12 CG1        20.0610   89.5660    8.4670 C.3       1 VAL        -0.0584
     13 CG2        19.1010   89.4700    6.1680 C.3       1 VAL        -0.0584
     14 N          21.4680   92.8200    7.7310 N.am      1 VAL        -0.2635
     15 CA         21.8940   93.7270    8.7720 C.3       1 VAL         0.1331
     16 C          20.6120   94.4610    9.0210 C.2       1 VAL         0.2022
     17 O          20.0380   95.1210    8.1510 O.2       1 VAL        -0.3945
     18 CB         23.0360   94.6910    8.3220 C.3       1 VAL        -0.0063
     19 CG1        23.0090   94.8930    6.8280 C.3       1 VAL        -0.0584
     20 CG2        22.8950   96.0340    9.0430 C.3       1 VAL        -0.0584
     21 N          20.1640   94.2290   10.2360 N.am      1 STA        -0.2793
     22 CA         18.8970   94.7300   10.6740 C.3       1 STA         0.0703
     23 CB         17.9720   93.5430   10.7320 C.3       1 STA        -0.0250
     24 CG         17.8000   92.5160    9.6040 C.3       1 STA        -0.0446
     25 CD1        17.1820   91.2830   10.2060 C.3       1 STA        -0.0626
     26 CD2        16.8960   92.9840    8.5080 C.3       1 STA        -0.0626
     27 CH         19.0580   95.4210   12.0390 C.3       1 STA         0.0947
     28 OH         19.8530   94.5500   12.8240 O.3       1 STA        -0.3872
     29 CM         19.8420   96.7200   12.0830 C.3       1 STA         0.0655
     30 C          19.0400   97.8300   11.4280 C.2       1 STA         0.1808
     31 O          19.1230   98.0330   10.2100 O.2       1 STA        -0.3968
     32 N          18.2580   98.5550   12.2190 N.am      1 ALA        -0.2658
     33 CA         17.4480   99.6430   11.7210 C.3       1 ALA         0.1280
     34 C          18.3100  100.8820   11.6790 C.2       1 ALA         0.2017
     35 O          18.3520  101.6860   12.6110 O.2       1 ALA        -0.3945
     36 CB         16.2830   99.9060   12.6400 C.3       1 ALA        -0.0244
     37 N          19.0660  100.9390   10.5800 N.am      1 STA        -0.2794
     38 CA         19.9820  102.0230   10.2820 C.3       1 STA         0.0697
     39 CB         21.2870  101.3660    9.8230 C.3       1 STA        -0.0250
     40 CG         22.4660  100.9890   10.7240 C.3       1 STA        -0.0446
     41 CD1        22.1070  100.9150   12.1970 C.3       1 STA        -0.0626
     42 CD2        22.9420   99.6110   10.2660 C.3       1 STA        -0.0626
     43 CH         19.4300  103.0190    9.2280 C.3       1 STA         0.0894
     44 OH         19.9530  102.5490    7.9800 O.3       1 STA        -0.3878
     45 CM         17.8990  103.0430    9.0190 C.3       1 STA         0.0284
     46 C          17.1810  104.3480    9.3800 C.2       1 STA         0.0373
     47 O          16.7940  104.5420   10.5450 O.co2     1 STA        -0.5689
     48 OXT        16.9310  105.1430    8.4590 O.co2     1 STA        -0.5689
     49 H1         24.0001   90.2311    3.7926 H         1 IVA         0.0505
     50 H2         25.1700   89.7994    5.0855 H         1 IVA         0.0505
     51 H3         23.5032   87.5653    4.0086 H         1 IVA         0.0320
     52 H4         24.9627   87.4142    1.9880 H         1 IVA         0.0234
     53 H5         25.7319   88.9733    2.4399 H         1 IVA         0.0234
     54 H6         23.9929   88.9262    1.9920 H         1 IVA         0.0234
     55 H7         25.2991   87.1666    5.6664 H         1 IVA         0.0234
     56 H8         26.4952   87.9157    4.5553 H         1 IVA         0.0234
     57 H9         25.6798   86.3826    4.0958 H         1 IVA         0.0234
     58 H10        22.3802   91.1766    4.7979 H         1 VAL         0.1883
     59 H11        20.4534   91.5200    6.0131 H         1 VAL         0.0802
     60 H12        21.0141   88.6683    6.7723 H         1 VAL         0.0343
     61 H13        19.5220   88.6439    8.7302 H         1 VAL         0.0234
     62 H14        19.4292   90.4374    8.6938 H         1 VAL         0.0234
     63 H15        20.9915   89.6260    9.0505 H         1 VAL         0.0234
     64 H16        19.3414   89.4606    5.0946 H         1 VAL         0.0234
     65 H17        18.4694   90.3416    6.3946 H         1 VAL         0.0234
     66 H18        18.5617   88.5480    6.4310 H         1 VAL         0.0234
     67 H19        20.8452   93.1669    7.0297 H         1 VAL         0.1883
     68 H20        22.2237   93.1779    9.6663 H         1 VAL         0.0802
     69 H21        24.0024   94.2429    8.5964 H         1 VAL         0.0343
     70 H22        23.8213   95.5746    6.5354 H         1 VAL         0.0234
     71 H23        22.0421   95.3275    6.5341 H         1 VAL         0.0234
     72 H24        23.1440   93.9244    6.3245 H         1 VAL         0.0234
     73 H25        22.9164   95.8703   10.1305 H         1 VAL         0.0234
     74 H26        21.9406   96.5029    8.7616 H         1 VAL         0.0234
     75 H27        23.7267   96.6939    8.7551 H         1 VAL         0.0234
     76 H28        20.7214   93.6904   10.8678 H         1 STA         0.1856
     77 H29        18.5095   95.4617    9.9498 H         1 STA         0.0583
     78 H30        16.9689   93.9587   10.9082 H         1 STA         0.0291
     79 H31        18.2890   92.9644   11.6122 H         1 STA         0.0291
     80 H32        18.7868   92.2793    9.1795 H         1 STA         0.0296
     81 H33        17.0437   90.5227    9.4232 H         1 STA         0.0232
     82 H34        16.2064   91.5388   10.6451 H         1 STA         0.0232
     83 H35        17.8441   90.8862   10.9896 H         1 STA         0.0232
     84 H36        17.3191   93.8873    8.0444 H         1 STA         0.0232
     85 H37        15.9045   93.2156    8.9242 H         1 STA         0.0232
     86 H38        16.7997   92.1933    7.7494 H         1 STA         0.0232
     87 H39        18.0621   95.5780   12.4788 H         1 STA         0.0642
     88 H40        19.9842   94.9316   13.6840 H         1 STA         0.2101
     89 H41        20.7927   96.5907   11.5450 H         1 STA         0.0529
     90 H42        20.0467   96.9872   13.1302 H         1 STA         0.0529
     91 H43        18.2285   98.3402   13.1952 H         1 ALA         0.1882
     92 H44        17.0784   99.4014   10.7135 H         1 ALA         0.0797
     93 H45        15.6818  100.7365   12.2415 H         1 ALA         0.0277
     94 H46        16.6572  100.1711   13.6398 H         1 ALA         0.0277
     95 H47        15.6595   99.0025   12.7095 H         1 ALA         0.0277
     96 H48        18.9964  100.1887    9.9225 H         1 STA         0.1855
     97 H49        20.1722  102.5886   11.2061 H         1 STA         0.0583
     98 H50        21.7057  102.0498    9.0700 H         1 STA         0.0291
     99 H51        20.9828  100.4272    9.3370 H         1 STA         0.0291
    100 H52        23.2694  101.7290   10.5938 H         1 STA         0.0296
    101 H53        22.9994  100.6405   12.7785 H         1 STA         0.0232
    102 H54        21.3246  100.1563   12.3461 H         1 STA         0.0232
    103 H55        21.7369  101.8945   12.5339 H         1 STA         0.0232
    104 H56        23.2058   99.6502    9.1988 H         1 STA         0.0232
    105 H57        22.1378   98.8760   10.4181 H         1 STA         0.0232
    106 H58        23.8250   99.3148   10.8513 H         1 STA         0.0232
    107 H59        19.7819  104.0337    9.4658 H         1 STA         0.0635
    108 H60        19.6539  103.1160    7.2789 H         1 STA         0.2100
    109 H61        17.4649  102.2412    9.6344 H         1 STA         0.0456
    110 H62        17.7032  102.8366    7.9564 H         1 STA         0.0456
@<TRIPOS>BOND
     1    8    7 1  
     2    8   11 1  
     3    9    8 1  
     4    9   10 2  
     5   11   13 1  
     6   11   12 1  
     7   15   14 1  
     8   15   18 1  
     9   16   15 1  
    10   16   17 2  
    11   18   20 1  
    12   18   19 1  
    13   14    9 am 
    14   32   33 1  
    15   33   36 1  
    16   33   34 1  
    17   34   35 2  
    18    1    2 1  
    19    5    1 1  
    20    2    3 1  
    21    2    4 1  
    22    5    6 2  
    23    7    5 am 
    24   21   16 am 
    25   22   21 1  
    26   22   23 1  
    27   27   22 1  
    28   23   24 1  
    29   24   25 1  
    30   24   26 1  
    31   27   28 1  
    32   29   27 1  
    33   30   29 1  
    34   30   31 2  
    35   32   30 am 
    36   34   37 am 
    37   37   38 1  
    38   38   39 1  
    39   38   43 1  
    40   39   40 1  
    41   40   41 1  
    42   40   42 1  
    43   43   44 1  
    44   43   45 1  
    45   45   46 1  
    46   46   47 ar 
    47   46   48 ar 
    48    1   49 1  
    49    1   50 1  
    50    2   51 1  
    51    3   52 1  
    52    3   53 1  
    53    3   54 1  
    54    4   55 1  
    55    4   56 1  
    56    4   57 1  
    57    7   58 1  
    58    8   59 1  
    59   11   60 1  
    60   12   61 1  
    61   12   62 1  
    62   12   63 1  
    63   13   64 1  
    64   13   65 1  
    65   13   66 1  
    66   14   67 1  
    67   15   68 1  
    68   18   69 1  
    69   19   70 1  
    70   19   71 1  
    71   19   72 1  
    72   20   73 1  
    73   20   74 1  
    74   20   75 1  
    75   21   76 1  
    76   22   77 1  
    77   23   78 1  
    78   23   79 1  
    79   24   80 1  
    80   25   81 1  
    81   25   82 1  
    82   25   83 1  
    83   26   84 1  
    84   26   85 1  
    85   26   86 1  
    86   27   87 1  
    87   28   88 1  
    88   29   89 1  
    89   29   90 1  
    90   32   91 1  
    91   33   92 1  
    92   36   93 1  
    93   36   94 1  
    94   36   95 1  
    95   37   96 1  
    96   38   97 1  
    97   39   98 1  
    98   39   99 1  
    99   40  100 1  
   100   41  101 1  
   101   41  102 1  
   102   41  103 1  
   103   42  104 1  
   104   42  105 1  
   105   42  106 1  
   106   43  107 1  
   107   44  108 1  
   108   45  109 1  
   109   45  110 1  
@<TRIPOS>SUBSTRUCTURE
     1 IVA         1

