### 
### Created by X-TOOL on Mon Sep 10 21:12:50 2018
### 

@<TRIPOS>MOLECULE
1lzq_ligand
   99   101     1     0     0
SMALL
GAST_HUCK


@<TRIPOS>ATOM
      1 O1        -22.0500   39.8290   30.2730 O.2       1 0ZQ        -0.3775
      2 C         -21.2040   39.1790   30.8690 C.2       1 0ZQ         0.3204
      3 O2        -21.2400   38.8070   32.2120 O.3       1 0ZQ        -0.2581
      4 CT        -22.4690   38.8660   33.0960 C.3       1 0ZQ         0.0905
      5 C1        -22.0300   38.3700   34.4650 C.3       1 0ZQ        -0.0320
      6 C2        -23.5510   37.9510   32.5250 C.3       1 0ZQ        -0.0320
      7 C3        -22.9610   40.3120   33.1770 C.3       1 0ZQ        -0.0320
      8 N         -20.0420   38.6920   30.3250 N.am      1 0ZQ        -0.2573
      9 CA        -19.6820   38.8830   28.9150 C.3       1 0ZQ         0.0582
     10 C         -19.8910   37.5850   28.1320 C.3       1 0ZQ         0.0123
     11 CB        -18.2130   39.3140   28.7860 C.3       1 0ZQ         0.0041
     12 CG        -17.9130   40.6630   29.3860 C.ar      1 0ZQ        -0.0409
     13 CD1       -16.6420   40.9500   29.8750 C.ar      1 0ZQ        -0.0603
     14 CD2       -18.8950   41.6610   29.4400 C.ar      1 0ZQ        -0.0603
     15 CE1       -16.3470   42.2090   30.4100 C.ar      1 0ZQ        -0.0686
     16 CE2       -18.6100   42.9220   29.9730 C.ar      1 0ZQ        -0.0686
     17 CZ        -17.3310   43.1940   30.4590 C.ar      1 0ZQ        -0.0687
     18 CM        -21.1740   37.5450   27.3210 C.3       1 0ZQ        -0.0292
     19 N         -21.8560   36.2550   27.4400 N.4       1 0ZQ         0.2476
     20 CA        -23.2170   36.2190   26.9060 C.3       1 0ZQ         0.0762
     21 C         -23.5330   37.2710   25.8460 C.2       1 0ZQ         0.2289
     22 O         -23.8410   38.4130   26.1720 O.2       1 0ZQ        -0.3905
     23 CB        -24.2470   36.3540   28.0300 C.3       1 0ZQ         0.0416
     24 CG        -25.6690   36.4240   27.5340 C.ar      1 0ZQ        -0.0353
     25 CD1       -26.4760   37.5170   27.8420 C.ar      1 0ZQ        -0.0600
     26 CD2       -26.1920   35.4110   26.7340 C.ar      1 0ZQ        -0.0600
     27 CE1       -27.7850   37.6110   27.3670 C.ar      1 0ZQ        -0.0686
     28 CE2       -27.4990   35.4920   26.2470 C.ar      1 0ZQ        -0.0686
     29 CZ        -28.2990   36.6000   26.5670 C.ar      1 0ZQ        -0.0687
     30 N         -23.4710   36.8670   24.5820 N.am      1 0ZQ        -0.2608
     31 CA        -23.7710   37.7480   23.4620 C.3       1 0ZQ         0.1326
     32 C         -24.6120   36.9810   22.4450 C.2       1 0ZQ         0.2041
     33 O         -24.3110   35.8300   22.1120 O.2       1 0ZQ        -0.3944
     34 CB        -22.4700   38.2480   22.8160 C.3       1 0ZQ        -0.0008
     35 CG        -22.6500   39.0670   21.5350 C.3       1 0ZQ         0.0044
     36 CD        -22.9140   38.1990   20.3100 C.2       1 0ZQ         0.0350
     37 OE1       -23.2640   38.7470   19.2400 O.co2     1 0ZQ        -0.5690
     38 OE2       -22.7650   36.9640   20.4180 O.co2     1 0ZQ        -0.5690
     39 N         -25.6750   37.6110   21.9620 N.am      1 0ZQ        -0.2619
     40 CA        -26.5190   36.9610   20.9740 C.3       1 0ZQ         0.1401
     41 C         -26.8160   37.8930   19.7970 C.2       1 0ZQ         0.2012
     42 O         -26.9190   39.1110   19.9550 O.2       1 0ZQ        -0.3946
     43 CB        -27.8170   36.4580   21.6320 C.3       1 0ZQ         0.0214
     44 CG        -28.7310   37.5540   22.1130 C.ar      1 0ZQ        -0.0386
     45 CD1       -29.7730   38.0150   21.3100 C.ar      1 0ZQ        -0.0601
     46 CD2       -28.5540   38.1280   23.3690 C.ar      1 0ZQ        -0.0601
     47 CE1       -30.6240   39.0300   21.7530 C.ar      1 0ZQ        -0.0686
     48 CE2       -29.4040   39.1490   23.8180 C.ar      1 0ZQ        -0.0686
     49 CZ        -30.4380   39.5960   23.0090 C.ar      1 0ZQ        -0.0687
     50 N         -26.9270   37.3150   18.6080 N.am      1 0ZQ        -0.2988
     51 H1        -22.8868   38.3905   35.1545 H         1 0ZQ         0.0260
     52 H2        -21.2321   39.0207   34.8523 H         1 0ZQ         0.0260
     53 H3        -21.6536   37.3400   34.3785 H         1 0ZQ         0.0260
     54 H4        -24.4434   37.9937   33.1667 H         1 0ZQ         0.0260
     55 H5        -23.1754   36.9178   32.4877 H         1 0ZQ         0.0260
     56 H6        -23.8134   38.2827   31.5096 H         1 0ZQ         0.0260
     57 H7        -23.8536   40.3602   33.8180 H         1 0ZQ         0.0260
     58 H8        -23.2143   40.6702   32.1683 H         1 0ZQ         0.0260
     59 H9        -22.1691   40.9455   33.6030 H         1 0ZQ         0.0260
     60 H10       -19.4134   38.1851   30.9148 H         1 0ZQ         0.1872
     61 H11       -20.3246   39.6675   28.4888 H         1 0ZQ         0.0580
     62 H12       -19.9096   36.7499   28.8477 H         1 0ZQ         0.0341
     63 H13       -19.0434   37.4582   27.4425 H         1 0ZQ         0.0341
     64 H14       -17.9550   39.3462   27.7172 H         1 0ZQ         0.0448
     65 H15       -17.5872   38.5640   29.2919 H         1 0ZQ         0.0448
     66 H16       -15.8710   40.1888   29.8410 H         1 0ZQ         0.0557
     67 H17       -19.8898   41.4526   29.0632 H         1 0ZQ         0.0557
     68 H18       -15.3522   42.4180   30.7865 H         1 0ZQ         0.0599
     69 H19       -19.3795   43.6847   30.0084 H         1 0ZQ         0.0599
     70 H20       -17.1034   44.1693   30.8737 H         1 0ZQ         0.0559
     71 H21       -20.9314   37.7225   26.2629 H         1 0ZQ         0.0815
     72 H22       -21.8469   38.3373   27.6808 H         1 0ZQ         0.0815
     73 H23       -21.8981   36.0135   28.4177 H         1 0ZQ         0.2037
     74 H24       -21.3093   35.5665   26.9470 H         1 0ZQ         0.2037
     75 H25       -23.3475   35.2327   26.4368 H         1 0ZQ         0.1123
     76 H26       -24.0290   37.2727   28.5942 H         1 0ZQ         0.0507
     77 H27       -24.1525   35.4836   28.6959 H         1 0ZQ         0.0507
     78 H28       -26.0789   38.3112   28.4637 H         1 0ZQ         0.0557
     79 H29       -25.5792   34.5516   26.4869 H         1 0ZQ         0.0557
     80 H30       -28.3968   38.4689   27.6215 H         1 0ZQ         0.0599
     81 H31       -27.8950   34.6995   25.6223 H         1 0ZQ         0.0599
     82 H32       -29.3136   36.6658   26.1911 H         1 0ZQ         0.0559
     83 H33       -23.2081   35.9210   24.3922 H         1 0ZQ         0.1885
     84 H34       -24.3439   38.6139   23.8253 H         1 0ZQ         0.0801
     85 H35       -21.8511   37.3712   22.5749 H         1 0ZQ         0.0330
     86 H36       -21.9452   38.8765   23.5505 H         1 0ZQ         0.0330
     87 H37       -21.7349   39.6518   21.3604 H         1 0ZQ         0.0433
     88 H38       -23.5013   39.7501   21.6715 H         1 0ZQ         0.0433
     89 H39       -25.8955   38.5338   22.2781 H         1 0ZQ         0.1885
     90 H40       -25.9754   36.0883   20.5831 H         1 0ZQ         0.0823
     91 H41       -27.5460   35.8316   22.4947 H         1 0ZQ         0.0474
     92 H42       -28.3642   35.8511   20.8956 H         1 0ZQ         0.0474
     93 H43       -29.9248   37.5800   20.3288 H         1 0ZQ         0.0557
     94 H44       -27.7495   37.7815   24.0075 H         1 0ZQ         0.0557
     95 H45       -31.4303   39.3768   21.1168 H         1 0ZQ         0.0599
     96 H46       -29.2529   39.5888   24.7972 H         1 0ZQ         0.0599
     97 H47       -31.0982   40.3833   23.3546 H         1 0ZQ         0.0559
     98 H48       -27.1205   37.8695   17.7986 H         1 0ZQ         0.1815
     99 H49       -26.8172   36.3248   18.5212 H         1 0ZQ         0.1815
@<TRIPOS>BOND
     1    1    2 2  
     2    2    3 1  
     3    2    8 am 
     4    3    4 1  
     5    4    5 1  
     6    4    6 1  
     7    4    7 1  
     8    8    9 1  
     9    9   10 1  
    10    9   11 1  
    11   10   18 1  
    12   11   12 1  
    13   12   13 ar 
    14   12   14 ar 
    15   13   15 ar 
    16   14   16 ar 
    17   15   17 ar 
    18   16   17 ar 
    19   18   19 1  
    20   19   20 1  
    21   20   21 1  
    22   20   23 1  
    23   21   22 2  
    24   21   30 am 
    25   23   24 1  
    26   24   25 ar 
    27   24   26 ar 
    28   25   27 ar 
    29   26   28 ar 
    30   27   29 ar 
    31   28   29 ar 
    32   30   31 1  
    33   31   32 1  
    34   31   34 1  
    35   32   33 2  
    36   32   39 am 
    37   34   35 1  
    38   35   36 1  
    39   36   37 ar 
    40   36   38 ar 
    41   39   40 1  
    42   40   41 1  
    43   40   43 1  
    44   41   42 2  
    45   41   50 am 
    46   43   44 1  
    47   44   45 ar 
    48   44   46 ar 
    49   45   47 ar 
    50   46   48 ar 
    51   47   49 ar 
    52   48   49 ar 
    53    5   51 1  
    54    5   52 1  
    55    5   53 1  
    56    6   54 1  
    57    6   55 1  
    58    6   56 1  
    59    7   57 1  
    60    7   58 1  
    61    7   59 1  
    62    8   60 1  
    63    9   61 1  
    64   10   62 1  
    65   10   63 1  
    66   11   64 1  
    67   11   65 1  
    68   13   66 1  
    69   14   67 1  
    70   15   68 1  
    71   16   69 1  
    72   17   70 1  
    73   18   71 1  
    74   18   72 1  
    75   19   73 1  
    76   19   74 1  
    77   20   75 1  
    78   23   76 1  
    79   23   77 1  
    80   25   78 1  
    81   26   79 1  
    82   27   80 1  
    83   28   81 1  
    84   29   82 1  
    85   30   83 1  
    86   31   84 1  
    87   34   85 1  
    88   34   86 1  
    89   35   87 1  
    90   35   88 1  
    91   39   89 1  
    92   40   90 1  
    93   43   91 1  
    94   43   92 1  
    95   45   93 1  
    96   46   94 1  
    97   47   95 1  
    98   48   96 1  
    99   49   97 1  
   100   50   98 1  
   101   50   99 1  
@<TRIPOS>SUBSTRUCTURE
     1 0ZQ         1

