### 
### Created by X-TOOL on Mon Sep 10 21:12:51 2018
### 

@<TRIPOS>MOLECULE
1m0b_ligand
   99   101     1     0     0
SMALL
GAST_HUCK


@<TRIPOS>ATOM
      1 O1         -8.3880   15.5290   -2.5950 O.2       1 0ZQ        -0.3775
      2 C          -8.2370   16.5330   -3.2540 C.2       1 0ZQ         0.3204
      3 O2         -8.3700   16.6440   -4.6150 O.3       1 0ZQ        -0.2581
      4 CT         -9.0020   15.5950   -5.4930 C.3       1 0ZQ         0.0905
      5 C1         -8.9150   16.1400   -6.9140 C.3       1 0ZQ        -0.0320
      6 C2        -10.4790   15.3880   -5.0860 C.3       1 0ZQ        -0.0320
      7 C3         -8.1980   14.2870   -5.3690 C.3       1 0ZQ        -0.0320
      8 N          -7.9010   17.7520   -2.7510 N.am      1 0ZQ        -0.2573
      9 CA         -7.6340   17.9260   -1.3270 C.3       1 0ZQ         0.0582
     10 C          -8.8060   18.6250   -0.6340 C.3       1 0ZQ         0.0123
     11 CB         -6.3200   18.6940   -1.1310 C.3       1 0ZQ         0.0041
     12 CG         -5.1400   18.0280   -1.7760 C.ar      1 0ZQ        -0.0409
     13 CD1        -4.6920   18.4390   -3.0330 C.ar      1 0ZQ        -0.0603
     14 CD2        -4.5230   16.9350   -1.1660 C.ar      1 0ZQ        -0.0603
     15 CE1        -3.6530   17.7710   -3.6760 C.ar      1 0ZQ        -0.0686
     16 CE2        -3.4830   16.2590   -1.8020 C.ar      1 0ZQ        -0.0686
     17 CZ         -3.0490   16.6780   -3.0590 C.ar      1 0ZQ        -0.0687
     18 CM         -9.5760   17.7220    0.3270 C.3       1 0ZQ        -0.0292
     19 N         -10.6760   17.0270   -0.3340 N.4       1 0ZQ         0.2476
     20 CA        -11.2620   15.9140    0.4180 C.3       1 0ZQ         0.0762
     21 C         -10.4190   15.2950    1.5460 C.2       1 0ZQ         0.2289
     22 O          -9.3730   14.6980    1.2960 O.2       1 0ZQ        -0.3905
     23 CB        -11.6570   14.7930   -0.5430 C.3       1 0ZQ         0.0416
     24 CG        -12.3830   13.6630    0.1200 C.ar      1 0ZQ        -0.0353
     25 CD1       -12.1080   12.3500   -0.2290 C.ar      1 0ZQ        -0.0600
     26 CD2       -13.3250   13.9120    1.1130 C.ar      1 0ZQ        -0.0600
     27 CE1       -12.7520   11.2930    0.3990 C.ar      1 0ZQ        -0.0686
     28 CE2       -13.9790   12.8590    1.7520 C.ar      1 0ZQ        -0.0686
     29 CZ        -13.6910   11.5490    1.3950 C.ar      1 0ZQ        -0.0687
     30 N         -10.9030   15.4250    2.7800 N.am      1 0ZQ        -0.2608
     31 CA        -10.2460   14.8750    3.9650 C.3       1 0ZQ         0.1326
     32 C         -11.3350   14.6100    5.0010 C.2       1 0ZQ         0.2041
     33 O         -12.1910   15.4600    5.2250 O.2       1 0ZQ        -0.3944
     34 CB         -9.2210   15.8670    4.5270 C.3       1 0ZQ        -0.0008
     35 CG         -8.4970   15.3860    5.7830 C.3       1 0ZQ         0.0044
     36 CD         -9.3760   15.4210    7.0340 C.2       1 0ZQ         0.0350
     37 OE1        -8.9920   14.8270    8.0690 O.co2     1 0ZQ        -0.5690
     38 OE2       -10.4510   16.0560    6.9880 O.co2     1 0ZQ        -0.5690
     39 N         -11.3100   13.4390    5.6310 N.am      1 0ZQ        -0.2619
     40 CA        -12.3090   13.1080    6.6370 C.3       1 0ZQ         0.1401
     41 C         -11.7400   12.4240    7.8820 C.2       1 0ZQ         0.2012
     42 O         -10.6190   11.9180    7.8780 O.2       1 0ZQ        -0.3946
     43 CB        -13.4140   12.2430    6.0110 C.3       1 0ZQ         0.0214
     44 CG        -12.9260   10.9370    5.4420 C.ar      1 0ZQ        -0.0386
     45 CD1       -13.0590    9.7580    6.1590 C.ar      1 0ZQ        -0.0601
     46 CD2       -12.3430   10.8860    4.1760 C.ar      1 0ZQ        -0.0601
     47 CE1       -12.6220    8.5450    5.6230 C.ar      1 0ZQ        -0.0686
     48 CE2       -11.9020    9.6750    3.6310 C.ar      1 0ZQ        -0.0686
     49 CZ        -12.0430    8.5060    4.3560 C.ar      1 0ZQ        -0.0687
     50 N         -12.5220   12.4160    8.9550 N.am      1 0ZQ        -0.2988
     51 H1         -9.3625   15.4171   -7.6120 H         1 0ZQ         0.0260
     52 H2         -7.8602   16.3023   -7.1806 H         1 0ZQ         0.0260
     53 H3         -9.4596   17.0938   -6.9749 H         1 0ZQ         0.0260
     54 H4        -10.9331   14.6213   -5.7310 H         1 0ZQ         0.0260
     55 H5        -11.0270   16.3349   -5.2004 H         1 0ZQ         0.0260
     56 H6        -10.5279   15.0604   -4.0371 H         1 0ZQ         0.0260
     57 H7         -8.6529   13.5151   -6.0072 H         1 0ZQ         0.0260
     58 H8         -8.2067   13.9491   -4.3222 H         1 0ZQ         0.0260
     59 H9         -7.1604   14.4626   -5.6890 H         1 0ZQ         0.0260
     60 H10        -7.8362   18.5386   -3.3651 H         1 0ZQ         0.1872
     61 H11        -7.5184   16.9303   -0.8740 H         1 0ZQ         0.0580
     62 H12        -9.5021   18.9845   -1.4062 H         1 0ZQ         0.0341
     63 H13        -8.4135   19.4817   -0.0666 H         1 0ZQ         0.0341
     64 H14        -6.1245   18.7815   -0.0521 H         1 0ZQ         0.0448
     65 H15        -6.4345   19.6980   -1.5655 H         1 0ZQ         0.0448
     66 H16        -5.1595   19.2899   -3.5151 H         1 0ZQ         0.0557
     67 H17        -4.8559   16.6083   -0.1875 H         1 0ZQ         0.0557
     68 H18        -3.3158   18.1001   -4.6522 H         1 0ZQ         0.0599
     69 H19        -3.0127   15.4094   -1.3203 H         1 0ZQ         0.0599
     70 H20        -2.2414   16.1530   -3.5562 H         1 0ZQ         0.0559
     71 H21        -9.9844   18.3378    1.1419 H         1 0ZQ         0.0815
     72 H22        -8.8839   16.9752    0.7432 H         1 0ZQ         0.0815
     73 H23       -10.3325   16.6636   -1.2092 H         1 0ZQ         0.2037
     74 H24       -11.4055   17.6993   -0.5125 H         1 0ZQ         0.2037
     75 H25       -12.1774   16.3050    0.8862 H         1 0ZQ         0.1123
     76 H26       -10.7428   14.3943   -1.0069 H         1 0ZQ         0.0507
     77 H27       -12.3089   15.2159   -1.3216 H         1 0ZQ         0.0507
     78 H28       -11.3786   12.1456   -1.0044 H         1 0ZQ         0.0557
     79 H29       -13.5528   14.9342    1.3927 H         1 0ZQ         0.0557
     80 H30       -12.5248   10.2718    0.1152 H         1 0ZQ         0.0599
     81 H31       -14.7104   13.0631    2.5256 H         1 0ZQ         0.0599
     82 H32       -14.1957   10.7273    1.8902 H         1 0ZQ         0.0559
     83 H33       -11.7604   15.9248    2.9025 H         1 0ZQ         0.1885
     84 H34        -9.7368   13.9349    3.7063 H         1 0ZQ         0.0801
     85 H35        -9.7458   16.8027    4.7700 H         1 0ZQ         0.0330
     86 H36        -8.4677   16.0605    3.7491 H         1 0ZQ         0.0330
     87 H37        -7.6225   16.0316    5.9517 H         1 0ZQ         0.0433
     88 H38        -8.1625   14.3510    5.6193 H         1 0ZQ         0.0433
     89 H39       -10.5945   12.7761    5.4105 H         1 0ZQ         0.1885
     90 H40       -12.7644   14.0535    6.9667 H         1 0ZQ         0.0823
     91 H41       -13.8850   12.8182    5.2003 H         1 0ZQ         0.0474
     92 H42       -14.1618   12.0233    6.7872 H         1 0ZQ         0.0474
     93 H43       -13.5069    9.7780    7.1459 H         1 0ZQ         0.0557
     94 H44       -12.2296   11.8001    3.6045 H         1 0ZQ         0.0557
     95 H45       -12.7335    7.6306    6.1943 H         1 0ZQ         0.0599
     96 H46       -11.4519    9.6534    2.6451 H         1 0ZQ         0.0599
     97 H47       -11.7047    7.5636    3.9407 H         1 0ZQ         0.0559
     98 H48       -12.2069   11.9842    9.8001 H         1 0ZQ         0.1815
     99 H49       -13.4261   12.8418    8.9180 H         1 0ZQ         0.1815
@<TRIPOS>BOND
     1    1    2 2  
     2    2    3 1  
     3    2    8 am 
     4    3    4 1  
     5    4    5 1  
     6    4    6 1  
     7    4    7 1  
     8    8    9 1  
     9    9   10 1  
    10    9   11 1  
    11   10   18 1  
    12   11   12 1  
    13   12   13 ar 
    14   12   14 ar 
    15   13   15 ar 
    16   14   16 ar 
    17   15   17 ar 
    18   16   17 ar 
    19   18   19 1  
    20   19   20 1  
    21   20   21 1  
    22   20   23 1  
    23   21   22 2  
    24   21   30 am 
    25   23   24 1  
    26   24   25 ar 
    27   24   26 ar 
    28   25   27 ar 
    29   26   28 ar 
    30   27   29 ar 
    31   28   29 ar 
    32   30   31 1  
    33   31   32 1  
    34   31   34 1  
    35   32   33 2  
    36   32   39 am 
    37   34   35 1  
    38   35   36 1  
    39   36   37 ar 
    40   36   38 ar 
    41   39   40 1  
    42   40   41 1  
    43   40   43 1  
    44   41   42 2  
    45   41   50 am 
    46   43   44 1  
    47   44   45 ar 
    48   44   46 ar 
    49   45   47 ar 
    50   46   48 ar 
    51   47   49 ar 
    52   48   49 ar 
    53    5   51 1  
    54    5   52 1  
    55    5   53 1  
    56    6   54 1  
    57    6   55 1  
    58    6   56 1  
    59    7   57 1  
    60    7   58 1  
    61    7   59 1  
    62    8   60 1  
    63    9   61 1  
    64   10   62 1  
    65   10   63 1  
    66   11   64 1  
    67   11   65 1  
    68   13   66 1  
    69   14   67 1  
    70   15   68 1  
    71   16   69 1  
    72   17   70 1  
    73   18   71 1  
    74   18   72 1  
    75   19   73 1  
    76   19   74 1  
    77   20   75 1  
    78   23   76 1  
    79   23   77 1  
    80   25   78 1  
    81   26   79 1  
    82   27   80 1  
    83   28   81 1  
    84   29   82 1  
    85   30   83 1  
    86   31   84 1  
    87   34   85 1  
    88   34   86 1  
    89   35   87 1  
    90   35   88 1  
    91   39   89 1  
    92   40   90 1  
    93   43   91 1  
    94   43   92 1  
    95   45   93 1  
    96   46   94 1  
    97   47   95 1  
    98   48   96 1  
    99   49   97 1  
   100   50   98 1  
   101   50   99 1  
@<TRIPOS>SUBSTRUCTURE
     1 0ZQ         1

