### 
### Created by X-TOOL on Mon Sep 10 21:12:50 2018
### 

@<TRIPOS>MOLECULE
1m13_ligand
   91    92     1     0     0
SMALL
GAST_HUCK


@<TRIPOS>ATOM
      1 C1          9.5070   71.9840   -4.1800 C.2       1 HYF        -0.0871
      2 C2         13.6650   77.9120   -5.8650 C.3       1 HYF        -0.0406
      3 C3         15.1880   79.1870   -4.2550 C.3       1 HYF        -0.0406
      4 C4          5.0030   74.6870   -1.2500 C.3       1 HYF        -0.0489
      5 C5          6.2350   74.6680   -0.3330 C.3       1 HYF         0.0095
      6 C6          5.8040   74.2810    1.0940 C.3       1 HYF        -0.0489
      7 C7          7.0020   76.0620   -0.3760 C.2       1 HYF         0.0659
      8 O8          6.2840   77.0480   -0.1880 O.2       1 HYF        -0.3811
      9 C9         13.3150   77.8590   -3.3460 C.2       1 HYF        -0.1090
     10 C10        13.9980   78.2770   -4.4340 C.2       1 HYF        -0.0871
     11 C11        12.0810   76.9660   -3.2950 C.3       1 HYF        -0.0456
     12 C12         8.4820   77.4650   -3.1420 C.3       1 HYF        -0.0739
     13 C13        13.6170   80.8910   -0.1630 C.3       1 HYF        -0.0406
     14 C14        11.7280   82.6660   -0.4250 C.3       1 HYF        -0.0406
     15 C15        12.1300   81.2800    0.0420 C.2       1 HYF        -0.0874
     16 C16        11.1890   80.4850    0.6070 C.2       1 HYF        -0.1109
     17 C17        11.3950   79.0610    1.1560 C.3       1 HYF        -0.0323
     18 C18         9.2020   77.7360    0.0590 C.2       1 HYF         0.0961
     19 O19         8.4850   78.7260    0.2600 O.2       1 HYF        -0.3285
     20 O20        11.4100   76.5640    2.5800 O.2       1 HYF        -0.2892
     21 O21         8.9400   73.7130   -0.4720 O.3       1 HYF        -0.3330
     22 C22        13.8920   73.3240   -0.3130 C.3       1 HYF        -0.0326
     23 C23        12.6770   71.1600   -1.0270 C.3       1 HYF        -0.0326
     24 C24        12.6530   72.4240   -0.1930 C.2       1 HYF        -0.0674
     25 C25        11.5570   72.6370    0.5940 C.2       1 HYF        -0.0672
     26 C26        11.1320   73.7480    1.5960 C.3       1 HYF         0.0426
     27 C27         8.6440   76.2870   -0.6350 C.3       1 HYF         0.0803
     28 C28         9.3820   74.9580   -0.0020 C.2       1 HYF         0.0945
     29 C29        10.4180   74.9830    0.9740 C.2       1 HYF         0.1126
     30 C30        10.9160   76.4320    1.4580 C.2       1 HYF         0.2222
     31 C31        10.7900   77.7140    0.4640 C.3       1 HYF         0.0980
     32 C32        11.6690   77.3300   -0.8830 C.3       1 HYF        -0.0342
     33 C33        10.9400   77.4360   -2.3010 C.3       1 HYF        -0.0483
     34 C34         9.3900   76.5270   -2.2530 C.3       1 HYF        -0.0575
     35 C35         9.6030   75.2470   -3.1780 C.3       1 HYF        -0.0588
     36 C36         8.4640   74.3130   -3.6750 C.3       1 HYF        -0.0482
     37 C37         9.0340   73.1930   -4.5490 C.2       1 HYF        -0.1093
     38 C38         9.5590   71.4920   -2.7470 C.3       1 HYF        -0.0406
     39 C39        10.0210   71.0400   -5.2370 C.3       1 HYF        -0.0406
     40 H1         14.3860   78.3919   -6.5431 H         1 HYF         0.0375
     41 H2         12.6491   78.2589   -6.1050 H         1 HYF         0.0375
     42 H3         13.7180   76.8201   -5.9868 H         1 HYF         0.0375
     43 H4         15.3392   79.3864   -3.1838 H         1 HYF         0.0375
     44 H5         15.0072   80.1352   -4.7825 H         1 HYF         0.0375
     45 H6         16.0852   78.7029   -4.6680 H         1 HYF         0.0375
     46 H7          4.4939   73.7132   -1.2003 H         1 HYF         0.0256
     47 H8          5.3193   74.8829   -2.2851 H         1 HYF         0.0256
     48 H9          4.3134   75.4784   -0.9213 H         1 HYF         0.0256
     49 H10         6.9262   73.8953   -0.7006 H         1 HYF         0.0499
     50 H11         6.6853   74.2669    1.7521 H         1 HYF         0.0256
     51 H12         5.3414   73.2831    1.0794 H         1 HYF         0.0256
     52 H13         5.0775   75.0165    1.4698 H         1 HYF         0.0256
     53 H14        13.6937   78.2033   -2.3848 H         1 HYF         0.0242
     54 H15        11.6522   76.9223   -4.3070 H         1 HYF         0.0342
     55 H16        12.4033   75.9596   -2.9896 H         1 HYF         0.0342
     56 H17         8.9510   77.6023   -4.1275 H         1 HYF         0.0219
     57 H18         8.3713   78.4422   -2.6493 H         1 HYF         0.0219
     58 H19         7.4914   77.0038   -3.2684 H         1 HYF         0.0219
     59 H20        14.1511   81.7241   -0.6433 H         1 HYF         0.0375
     60 H21        13.6777   79.9988   -0.8035 H         1 HYF         0.0375
     61 H22        14.0772   80.6743    0.8123 H         1 HYF         0.0375
     62 H23        10.6574   82.8233   -0.2273 H         1 HYF         0.0375
     63 H24        11.9191   82.7591   -1.5043 H         1 HYF         0.0375
     64 H25        12.3158   83.4207    0.1179 H         1 HYF         0.0375
     65 H26        10.1831   80.8957    0.6804 H         1 HYF         0.0239
     66 H27        10.9915   79.0760    2.1792 H         1 HYF         0.0316
     67 H28        12.4842   78.9119    1.1935 H         1 HYF         0.0316
     68 H29         8.6033   73.2027    0.2551 H         1 HYF         0.2533
     69 H30        14.5999   72.8798   -1.0282 H         1 HYF         0.0409
     70 H31        14.3747   73.4166    0.6711 H         1 HYF         0.0409
     71 H32        13.5887   74.3200   -0.6679 H         1 HYF         0.0409
     72 H33        11.7468   70.5958   -0.8645 H         1 HYF         0.0409
     73 H34        13.5373   70.5417   -0.7310 H         1 HYF         0.0409
     74 H35        12.7643   71.4244   -2.0912 H         1 HYF         0.0409
     75 H36        10.8109   71.8496    0.4979 H         1 HYF         0.0360
     76 H37        12.0374   74.1044    2.1089 H         1 HYF         0.0785
     77 H38        10.4482   73.2970    2.3301 H         1 HYF         0.0785
     78 H39        12.0115   76.2912   -0.7666 H         1 HYF         0.0247
     79 H40        12.5393   78.0022   -0.9100 H         1 HYF         0.0247
     80 H41        10.6916   78.4833   -2.5275 H         1 HYF         0.0301
     81 H42        10.2970   74.5966   -2.6254 H         1 HYF         0.0269
     82 H43        10.0959   75.6200   -4.0879 H         1 HYF         0.0269
     83 H44         7.7442   74.9009   -4.2634 H         1 HYF         0.0339
     84 H45         7.9534   73.8707   -2.8069 H         1 HYF         0.0339
     85 H46         9.0617   73.4007   -5.6177 H         1 HYF         0.0242
     86 H47         9.9866   70.4788   -2.7225 H         1 HYF         0.0375
     87 H48         8.5416   71.4708   -2.3294 H         1 HYF         0.0375
     88 H49        10.1866   72.1693   -2.1493 H         1 HYF         0.0375
     89 H50         9.9291   71.5121   -6.2263 H         1 HYF         0.0375
     90 H51         9.4313   70.1116   -5.2176 H         1 HYF         0.0375
     91 H52        11.0776   70.8075   -5.0385 H         1 HYF         0.0375
@<TRIPOS>BOND
     1   37    1 2  
     2    1   38 1  
     3    1   39 1  
     4   10    2 1  
     5    5    4 1  
     6    5    6 1  
     7    7    5 1  
     8    7    8 2  
     9   11   33 1  
    10   15   13 1  
    11   16   15 2  
    12   17   16 1  
    13   31   17 1  
    14   18   19 2  
    15   27   18 1  
    16   31   18 1  
    17   24   22 1  
    18   25   24 2  
    19   26   25 1  
    20   27    7 1  
    21   27   28 1  
    22   28   29 2  
    23   29   26 1  
    24   30   29 1  
    25   31   30 1  
    26   32   31 1  
    27   33   32 1  
    28   33   34 1  
    29   34   27 1  
    30   34   35 1  
    31   35   36 1  
    32   36   37 1  
    33   34   12 1  
    34   30   20 2  
    35   28   21 1  
    36   24   23 1  
    37   15   14 1  
    38    9   11 1  
    39    9   10 2  
    40   10    3 1  
    41    2   40 1  
    42    2   41 1  
    43    2   42 1  
    44    3   43 1  
    45    3   44 1  
    46    3   45 1  
    47    4   46 1  
    48    4   47 1  
    49    4   48 1  
    50    5   49 1  
    51    6   50 1  
    52    6   51 1  
    53    6   52 1  
    54    9   53 1  
    55   11   54 1  
    56   11   55 1  
    57   12   56 1  
    58   12   57 1  
    59   12   58 1  
    60   13   59 1  
    61   13   60 1  
    62   13   61 1  
    63   14   62 1  
    64   14   63 1  
    65   14   64 1  
    66   16   65 1  
    67   17   66 1  
    68   17   67 1  
    69   21   68 1  
    70   22   69 1  
    71   22   70 1  
    72   22   71 1  
    73   23   72 1  
    74   23   73 1  
    75   23   74 1  
    76   25   75 1  
    77   26   76 1  
    78   26   77 1  
    79   32   78 1  
    80   32   79 1  
    81   33   80 1  
    82   35   81 1  
    83   35   82 1  
    84   36   83 1  
    85   36   84 1  
    86   37   85 1  
    87   38   86 1  
    88   38   87 1  
    89   38   88 1  
    90   39   89 1  
    91   39   90 1  
    92   39   91 1  
@<TRIPOS>SUBSTRUCTURE
     1 HYF         1

