### 
### Created by X-TOOL on Mon Sep 10 21:12:49 2018
### 

@<TRIPOS>MOLECULE
1m1b_ligand
   12    11     1     0     0
SMALL
GAST_HUCK


@<TRIPOS>ATOM
      1 C1         30.3110   69.4470   73.1140 C.2       1 SPV         0.1264
      2 O1         30.8240   68.4790   72.4320 O.co2     1 SPV        -0.5464
      3 O2'        30.9770   70.3480   73.5750 O.co2     1 SPV        -0.5464
      4 C2         28.7920   69.3220   73.2920 C.2       1 SPV         0.1893
      5 C3         28.0660   68.2870   73.7790 C.3       1 SPV         0.1133
      6 O2         28.1120   70.3400   72.9260 O.2       1 SPV        -0.3561
      7 S          28.4660   67.9240   75.5260 S.o2      1 SPV        -0.1746
      8 O1S        28.2630   69.1270   76.2210 O.co2     1 SPV        -0.4823
      9 O2S        29.8230   67.4780   75.5040 O.co2     1 SPV        -0.4823
     10 O3S        27.5120   67.0010   75.9560 O.co2     1 SPV        -0.4823
     11 H1         28.2752   67.3921   73.1745 H         1 SPV         0.0706
     12 H2         26.9976   68.5380   73.7051 H         1 SPV         0.0706
@<TRIPOS>BOND
     1    1    4 1  
     2    1    3 ar 
     3    1    2 ar 
     4    4    6 2  
     5    4    5 1  
     6    5    7 1  
     7    7   10 ar 
     8    7    9 ar 
     9    7    8 ar 
    10    5   11 1  
    11    5   12 1  
@<TRIPOS>SUBSTRUCTURE
     1 SPV         1

