### 
### Created by X-TOOL on Mon Sep 10 21:12:49 2018
### 

@<TRIPOS>MOLECULE
1m21_ligand
   87    89     1     0     0
SMALL
GAST_HUCK


@<TRIPOS>ATOM
      1 C1          5.3470   -8.3030   58.7690 C.ar      1 PHA        -0.0687
      2 C2          6.1820   -8.1490   59.9080 C.ar      1 PHA        -0.0686
      3 C3          5.9090   -7.1230   60.8490 C.ar      1 PHA        -0.0603
      4 C4          4.8180   -6.2600   60.6580 C.ar      1 PHA        -0.0408
      5 C5          3.9610   -6.4060   59.5020 C.ar      1 PHA        -0.0603
      6 C6          4.2340   -7.4380   58.5560 C.ar      1 PHA        -0.0686
      7 C7          4.5830   -5.1770   61.7020 C.3       1 PHA         0.0061
      8 C8          4.6590   -3.7930   61.0960 C.3       1 PHA         0.0745
      9 C9          4.6010   -2.6460   62.1610 C.3       1 PHA         0.0689
     10 C10         6.2770   -2.5190   59.6240 C.2       1 LEU         0.2021
     11 C11         7.6230   -2.4520   58.8180 C.3       1 LEU         0.1311
     12 C12         7.5020   -1.1980   57.9180 C.3       1 LEU        -0.0101
     13 C13         8.7270   -0.9430   57.0230 C.3       1 LEU        -0.0425
     14 C14         8.5640    0.2870   56.1310 C.3       1 LEU        -0.0625
     15 C15        10.0160   -0.6960   57.8150 C.3       1 LEU        -0.0625
     16 C16         7.1060   -4.3160   57.2380 C.2       1 CSI         0.2074
     17 C17         7.7860   -5.4150   56.4160 C.3       1 CSI         0.1669
     18 C18         8.3200   -4.7420   55.1160 C.3       1 CSI         0.1164
     19 C19         7.2210   -3.9720   54.3500 C.3       1 CSI         0.0207
     20 C20         7.8400   -3.3930   53.1030 C.3       1 CSI         0.0662
     21 C21         9.1670   -5.4790   52.9450 C.cat     1 CSI         0.2907
     22 C22         7.2360   -7.7290   55.8330 C.2       1 CSI         0.2616
     23 C23         7.0100   -9.9850   55.2560 C.3       1 PHE         0.1042
     24 C24         6.6860  -10.2180   53.7560 C.2       1 PHE         0.0619
     25 C25         6.3800  -10.9810   56.2860 C.3       1 PHE         0.0157
     26 C26         4.8360  -11.0710   56.5080 C.ar      1 PHE        -0.0392
     27 C27         3.8750  -10.7100   55.5050 C.ar      1 PHE        -0.0602
     28 C28         2.4820  -10.8230   55.7700 C.ar      1 PHE        -0.0686
     29 C29         2.0310  -11.2960   57.0370 C.ar      1 PHE        -0.0687
     30 C30         2.9730  -11.6560   58.0370 C.ar      1 PHE        -0.0686
     31 C31         4.3690  -11.5450   57.7730 C.ar      1 PHE        -0.0602
     32 N1          5.9530   -3.6430   60.3090 N.am      1 PHA        -0.2778
     33 N2          7.9530   -3.6080   57.9530 N.am      1 LEU        -0.2636
     34 N3          9.0110   -5.7990   54.2830 N.pl3     1 CSI        -0.2651
     35 N4         10.0080   -6.2990   52.2900 N.pl3     1 CSI        -0.2847
     36 N5          8.5230   -4.4420   52.3320 N.pl3     1 CSI        -0.2720
     37 N6          6.8460   -6.5000   56.0920 N.am      1 CSI        -0.2482
     38 N7          6.3440   -8.6730   55.5330 N.am      1 PHE        -0.2557
     39 O1          5.4740   -1.5650   59.6400 O.2       1 LEU        -0.3945
     40 O2          5.8780   -4.1350   57.1760 O.2       1 CSI        -0.3943
     41 O3          8.4570   -7.9720   55.8720 O.2       1 CSI        -0.4006
     42 O4          6.8600   -9.2900   52.9190 O.co2     1 PHE        -0.5665
     43 O5          6.3120  -11.1840   53.3980 O.co2     1 PHE        -0.5665
     44 O6          4.2160   -2.8030   63.7410 O.3       1 PHA        -0.3926
     45 H1          5.5589   -9.0884   58.0526 H         1 PHA         0.0559
     46 H2          7.0253   -8.8135   60.0576 H         1 PHA         0.0599
     47 H3          6.5451   -7.0049   61.7188 H         1 PHA         0.0557
     48 H4          3.1199   -5.7380   59.3561 H         1 PHA         0.0557
     49 H5          3.6019   -7.5632   57.6843 H         1 PHA         0.0599
     50 H6          5.3487   -5.2655   62.4867 H         1 PHA         0.0449
     51 H7          3.5861   -5.3184   62.1448 H         1 PHA         0.0449
     52 H8          3.8063   -3.6738   60.4114 H         1 PHA         0.0601
     53 H9          3.8761   -1.9216   61.7612 H         1 PHA         0.0582
     54 H10         5.6065   -2.1999   62.1552 H         1 PHA         0.0582
     55 H11         8.4473   -2.3244   59.5351 H         1 LEU         0.0800
     56 H12         7.3599   -0.3207   58.5662 H         1 LEU         0.0315
     57 H13         6.6216   -1.3219   57.2703 H         1 LEU         0.0315
     58 H14         8.8625   -1.8311   56.3883 H         1 LEU         0.0298
     59 H15         9.4675    0.4171   55.5172 H         1 LEU         0.0232
     60 H16         8.4157    1.1781   56.7586 H         1 LEU         0.0232
     61 H17         7.6916    0.1512   55.4750 H         1 LEU         0.0232
     62 H18        10.2026   -1.5471   58.4864 H         1 LEU         0.0232
     63 H19         9.9107    0.2236   58.4093 H         1 LEU         0.0232
     64 H20        10.8597   -0.5873   57.1177 H         1 LEU         0.0232
     65 H21         8.6270   -5.8344   56.9876 H         1 CSI         0.0836
     66 H22         9.0791   -4.0018   55.4091 H         1 CSI         0.0776
     67 H23         6.8243   -3.1624   54.9802 H         1 CSI         0.0338
     68 H24         6.4054   -4.6580   54.0778 H         1 CSI         0.0338
     69 H25         8.5689   -2.6195   53.3864 H         1 CSI         0.0690
     70 H26         7.0509   -2.9435   52.4824 H         1 CSI         0.0690
     71 H27         8.0994   -9.9444   55.4029 H         1 PHE         0.0746
     72 H28         6.8183  -10.7321   57.2637 H         1 PHE         0.0466
     73 H29         6.7072  -11.9865   55.9828 H         1 PHE         0.0466
     74 H30         4.2126  -10.3492   54.5401 H         1 PHE         0.0557
     75 H31         1.7621  -10.5490   55.0072 H         1 PHE         0.0599
     76 H32         0.9690  -11.3809   57.2371 H         1 PHE         0.0559
     77 H33         2.6303  -12.0151   59.0007 H         1 PHE         0.0599
     78 H34         5.0838  -11.8228   58.5391 H         1 PHE         0.0557
     79 H35         6.5946   -4.4099   60.2966 H         1 PHA         0.1857
     80 H36         8.9151   -3.8769   57.9081 H         1 LEU         0.1883
     81 H37         9.3407   -6.6898   54.6813 H         1 CSI         0.2647
     82 H38        10.1961   -6.1505   51.2883 H         1 CSI         0.2615
     83 H39        10.4640   -7.0755   52.7901 H         1 CSI         0.2615
     84 H40         8.5157   -4.3938   51.3032 H         1 CSI         0.2642
     85 H41         5.8678   -6.2937   56.0677 H         1 CSI         0.1878
     86 H42         5.3558   -8.5239   55.4975 H         1 PHE         0.1871
     87 H43         4.2570   -1.9523   64.1618 H         1 PHA         0.2095
@<TRIPOS>BOND
     1    1    6 ar 
     2    1    2 ar 
     3    2    3 ar 
     4    3    4 ar 
     5    4    7 1  
     6    4    5 ar 
     7    5    6 ar 
     8    7    8 1  
     9    8   32 1  
    10    8    9 1  
    11    9   44 1  
    12   32   10 am 
    13   10   39 2  
    14   10   11 1  
    15   11   33 1  
    16   11   12 1  
    17   12   13 1  
    18   13   15 1  
    19   13   14 1  
    20   33   16 am 
    21   16   40 2  
    22   16   17 1  
    23   17   37 1  
    24   17   18 1  
    25   18   34 1  
    26   18   19 1  
    27   19   20 1  
    28   20   36 1  
    29   36   21 ar 
    30   21   34 ar 
    31   21   35 ar 
    32   37   22 am 
    33   22   38 am 
    34   22   41 2  
    35   38   23 1  
    36   23   25 1  
    37   23   24 1  
    38   24   42 ar 
    39   24   43 ar 
    40   25   26 1  
    41   26   31 ar 
    42   26   27 ar 
    43   27   28 ar 
    44   28   29 ar 
    45   29   30 ar 
    46   30   31 ar 
    47    1   45 1  
    48    2   46 1  
    49    3   47 1  
    50    5   48 1  
    51    6   49 1  
    52    7   50 1  
    53    7   51 1  
    54    8   52 1  
    55    9   53 1  
    56    9   54 1  
    57   11   55 1  
    58   12   56 1  
    59   12   57 1  
    60   13   58 1  
    61   14   59 1  
    62   14   60 1  
    63   14   61 1  
    64   15   62 1  
    65   15   63 1  
    66   15   64 1  
    67   17   65 1  
    68   18   66 1  
    69   19   67 1  
    70   19   68 1  
    71   20   69 1  
    72   20   70 1  
    73   23   71 1  
    74   25   72 1  
    75   25   73 1  
    76   27   74 1  
    77   28   75 1  
    78   29   76 1  
    79   30   77 1  
    80   31   78 1  
    81   32   79 1  
    82   33   80 1  
    83   34   81 1  
    84   35   82 1  
    85   35   83 1  
    86   36   84 1  
    87   37   85 1  
    88   38   86 1  
    89   44   87 1  
@<TRIPOS>SUBSTRUCTURE
     1 PHA         1

