### 
### Created by X-TOOL on Mon Sep 10 21:12:50 2018
### 

@<TRIPOS>MOLECULE
1m2p_ligand
   28    30     1     0     0
SMALL
GAST_HUCK


@<TRIPOS>ATOM
      1 C1         25.4730    3.5510   18.0020 C.ar      1 HNA         0.1190
      2 C2         24.7120    4.7670   17.8750 C.ar      1 HNA         0.0864
      3 C3         23.9660    5.2700   19.0040 C.ar      1 HNA         0.0861
      4 C4         23.9970    4.5440   20.2210 C.ar      1 HNA         0.2111
      5 C5         24.7510    3.3410   20.3100 C.ar      1 HNA        -0.0173
      6 C6         25.4880    2.8460   19.2180 C.ar      1 HNA        -0.0140
      7 C13        23.1930    6.5650   18.8220 C.2       1 HNA         0.1697
      8 C14        23.1880    7.2810   17.5300 C.ar      1 HNA         0.0441
      9 C15        23.9130    6.7760   16.4070 C.ar      1 HNA         0.0780
     10 C16        24.7000    5.5090   16.5640 C.2       1 HNA         0.1584
     11 C22        23.8740    7.5060   15.1610 C.ar      1 HNA         0.1125
     12 C23        23.1230    8.7050   15.0700 C.ar      1 HNA        -0.0225
     13 C24        22.4120    9.2000   16.1920 C.ar      1 HNA        -0.0602
     14 C25        22.4420    8.4920   17.4110 C.ar      1 HNA        -0.0490
     15 O16        25.3340    5.0620   15.6100 O.2       1 HNA        -0.3749
     16 O13        22.5320    7.0670   19.7280 O.2       1 HNA        -0.3591
     17 O1         26.2070    3.0380   16.9470 O.3       1 HNA        -0.3223
     18 O22        24.5420    7.0670   14.0280 O.3       1 HNA        -0.3264
     19 N4         23.3090    4.8910   21.4330 N.2       1 HNA         0.3115
     20 O4B        22.0820    4.4920   21.5490 O.2       1 HNA         0.1750
     21 O4A        23.8020    5.5610   22.3750 O.2       1 HNA         0.1750
     22 H1         24.7581    2.7908   21.2440 H         1 HNA         0.0712
     23 H2         26.0611    1.9309   19.3136 H         1 HNA         0.0608
     24 H3         23.0922    9.2488   14.1328 H         1 HNA         0.0592
     25 H4         21.8462   10.1212   16.1130 H         1 HNA         0.0637
     26 H5         21.8934    8.8709   18.2657 H         1 HNA         0.0592
     27 H6         26.1119    3.6054   16.1910 H         1 HNA         0.2535
     28 H7         25.0018    6.2595   14.2258 H         1 HNA         0.2511
@<TRIPOS>BOND
     1    1    2 ar 
     2    1    6 ar 
     3    1   17 1  
     4    2    3 ar 
     5    2   10 1  
     6    3    4 ar 
     7    3    7 1  
     8    4    5 ar 
     9    4   19 1  
    10    5    6 ar 
    11    7    8 1  
    12    7   16 2  
    13    8    9 ar 
    14    8   14 ar 
    15    9   10 1  
    16    9   11 ar 
    17   10   15 2  
    18   11   12 ar 
    19   11   18 1  
    20   12   13 ar 
    21   13   14 ar 
    22   19   20 2  
    23   19   21 2  
    24    5   22 1  
    25    6   23 1  
    26   12   24 1  
    27   13   25 1  
    28   14   26 1  
    29   17   27 1  
    30   18   28 1  
@<TRIPOS>SUBSTRUCTURE
     1 HNA         1

