### 
### Created by X-TOOL on Mon Sep 10 21:12:50 2018
### 

@<TRIPOS>MOLECULE
1m2q_ligand
   27    29     1     0     0
SMALL
GAST_HUCK


@<TRIPOS>ATOM
      1 C1         26.6500    3.5790   16.3840 C.ar      1 MNX         0.1881
      2 C2         25.9520    4.8130   16.1720 C.ar      1 MNX         0.1858
      3 C3         25.3110    5.4640   17.2850 C.ar      1 MNX         0.2893
      4 C4         25.3450    4.8720   18.5720 C.ar      1 MNX         0.0806
      5 C5         26.0310    3.6490   18.7750 C.ar      1 MNX         0.0255
      6 C6         26.6760    3.0000   17.6840 C.ar      1 MNX         0.0568
      7 O13        24.6240    6.6550   17.1080 O.3       1 MNX        -0.0946
      8 C14        24.5250    7.3130   15.8720 C.ar      1 MNX         0.3204
      9 C15        25.1440    6.7560   14.7020 C.ar      1 MNX         0.1922
     10 C16        25.8950    5.4740   14.8390 C.2       1 MNX         0.1931
     11 C22        25.0290    7.4390   13.4480 C.ar      1 MNX         0.1913
     12 C23        24.3100    8.6500   13.3670 C.ar      1 MNX         0.0621
     13 C24        23.6950    9.1970   14.5190 C.ar      1 MNX         0.0574
     14 C25        23.7970    8.5420   15.7720 C.ar      1 MNX         0.2251
     15 O16        26.4450    4.9490   13.8560 O.2       1 MNX        -0.3689
     16 O1         27.2870    2.9140   15.3340 O.3       1 MNX        -0.2959
     17 O22        25.6100    6.9450   12.2810 O.3       1 MNX        -0.2939
     18 N25        23.1470    9.1420   16.9200 N.2       1 MNX        -0.1653
     19 O2B        23.2030    8.5650   18.1600 O.2       1 MNX        -0.4691
     20 O2A        22.4590   10.3140   16.7690 O.2       1 MNX        -0.4691
     21 H1         24.8450    5.3559   19.4032 H         1 MNX         0.1193
     22 H2         26.0649    3.2061   19.7638 H         1 MNX         0.0866
     23 H3         27.1900    2.0592   17.8445 H         1 MNX         0.1274
     24 H4         24.2279    9.1650   12.4167 H         1 MNX         0.1269
     25 H5         23.1409   10.1255   14.4421 H         1 MNX         0.0935
     26 H6         27.1858    3.4169   14.5344 H         1 MNX         0.2672
     27 H7         26.0604    6.1309   12.4729 H         1 MNX         0.2681
@<TRIPOS>BOND
     1    1    2 ar 
     2    1    6 ar 
     3    1   16 1  
     4    2    3 ar 
     5    2   10 1  
     6    3    4 ar 
     7    3    7 1  
     8    4    5 ar 
     9    5    6 ar 
    10    7    8 1  
    11    8    9 ar 
    12    8   14 ar 
    13    9   10 1  
    14    9   11 ar 
    15   10   15 2  
    16   11   12 ar 
    17   11   17 1  
    18   12   13 ar 
    19   13   14 ar 
    20   14   18 1  
    21   18   19 2  
    22   18   20 2  
    23    4   21 1  
    24    5   22 1  
    25    6   23 1  
    26   12   24 1  
    27   13   25 1  
    28   16   26 1  
    29   17   27 1  
@<TRIPOS>SUBSTRUCTURE
     1 MNX         1

