### 
### Created by X-TOOL on Mon Sep 10 21:12:50 2018
### 

@<TRIPOS>MOLECULE
1m2x_ligand
   28    28     1     0     0
SMALL
GAST_HUCK


@<TRIPOS>ATOM
      1 O2        -29.4130   35.1480    7.0740 O.co2     1 MCO        -0.5666
      2 C9        -28.2570   35.5820    7.2860 C.2       1 MCO         0.0603
      3 O3        -27.2680   35.4070    6.5480 O.co2     1 MCO        -0.5666
      4 C8        -28.0410   36.4090    8.5740 C.3       1 MCO         0.0971
      5 C7        -28.7630   35.7520    9.7520 C.3       1 MCO        -0.0159
      6 C6        -27.7810   34.6970   10.2750 C.3       1 MCO        -0.0288
      7 C5        -26.3940   35.3130   10.0650 C.3       1 MCO         0.0362
      8 N         -26.6250   36.3060    8.9900 N.am      1 MCO        -0.2572
      9 C4        -25.6540   37.1220    8.5260 C.2       1 MCO         0.1838
     10 O1        -25.9280   37.9910    7.6970 O.2       1 MCO        -0.3964
     11 C2        -24.2130   36.9500    9.0220 C.3       1 MCO         0.0548
     12 C3        -23.9890   37.8620   10.2340 C.3       1 MCO        -0.0446
     13 C1        -23.2280   37.2870    7.9000 C.3       1 MCO         0.0101
     14 S         -21.5140   36.8160    8.3230 S.3       1 MCO        -0.1756
     15 H1        -28.3575   37.4516    8.4232 H         1 MCO         0.0728
     16 H2        -29.6982   35.2789    9.4181 H         1 MCO         0.0306
     17 H3        -28.9859   36.4943   10.5325 H         1 MCO         0.0306
     18 H4        -27.8791   33.7608    9.7059 H         1 MCO         0.0286
     19 H5        -27.9587   34.4978   11.3421 H         1 MCO         0.0286
     20 H6        -25.6673   34.5504    9.7482 H         1 MCO         0.0524
     21 H7        -26.0360   35.8016   10.9832 H         1 MCO         0.0524
     22 H8        -24.0587   35.9045    9.3270 H         1 MCO         0.0543
     23 H9        -22.9569   37.7442   10.5957 H         1 MCO         0.0257
     24 H10       -24.6917   37.5873   11.0345 H         1 MCO         0.0257
     25 H11       -24.1576   38.9088    9.9413 H         1 MCO         0.0257
     26 H12       -23.2617   38.3703    7.7123 H         1 MCO         0.0401
     27 H13       -23.5294   36.7476    6.9899 H         1 MCO         0.0401
     28 H14       -21.4713   35.8229    8.4905 H         1 MCO         0.1018
@<TRIPOS>BOND
     1    1    2 ar 
     2    2    3 ar 
     3    2    4 1  
     4    4    5 1  
     5    4    8 1  
     6    5    6 1  
     7    6    7 1  
     8    7    8 1  
     9    8    9 am 
    10    9   10 2  
    11    9   11 1  
    12   11   12 1  
    13   11   13 1  
    14   13   14 1  
    15    4   15 1  
    16    5   16 1  
    17    5   17 1  
    18    6   18 1  
    19    6   19 1  
    20    7   20 1  
    21    7   21 1  
    22   11   22 1  
    23   12   23 1  
    24   12   24 1  
    25   12   25 1  
    26   13   26 1  
    27   13   27 1  
    28   14   28 1  
@<TRIPOS>SUBSTRUCTURE
     1 MCO         1

