### 
### Created by X-TOOL on Mon Sep 10 21:12:49 2018
### 

@<TRIPOS>MOLECULE
1m4h_ligand
  132   132     1     0     0
SMALL
GAST_HUCK


@<TRIPOS>ATOM
      1 N          11.1220   29.4490   23.3140 N.4       1 GLU         0.2380
      2 CA         11.8500   28.6420   22.3030 C.3       1 GLU         0.0665
      3 C          13.2100   29.2920   21.9560 C.2       1 GLU         0.2268
      4 O          14.0480   28.6840   21.2830 O.2       1 GLU        -0.3907
      5 CB         10.9630   28.4700   21.0640 C.3       1 GLU         0.0194
      6 CG          9.4770   28.7240   21.3640 C.3       1 GLU         0.0075
      7 CD          8.5060   27.7970   20.6320 C.2       1 GLU         0.0351
      8 OE1         8.6040   26.5590   20.8030 O.co2     1 GLU        -0.5690
      9 OE2         7.6280   28.3090   19.8990 O.co2     1 GLU        -0.5690
     10 N          13.4340   30.5150   22.4330 N.am      1 LEU        -0.2610
     11 CA         14.7100   31.2010   22.2040 C.3       1 LEU         0.1313
     12 C          15.6730   31.0240   23.3670 C.2       1 LEU         0.2040
     13 O          15.2850   31.1170   24.5250 O.2       1 LEU        -0.3944
     14 CB         14.5150   32.7070   22.0100 C.3       1 LEU        -0.0101
     15 CG         14.4540   33.2550   20.5880 C.3       1 LEU        -0.0425
     16 CD1        14.6110   34.7640   20.6670 C.3       1 LEU        -0.0625
     17 CD2        15.5710   32.6570   19.7270 C.3       1 LEU        -0.0625
     18 N          16.9380   30.7960   23.0510 N.am      1 ASP        -0.2622
     19 CA         17.9670   30.6470   24.0720 C.3       1 ASP         0.1422
     20 C          19.2370   31.3320   23.5750 C.2       1 ASP         0.2037
     21 O          20.2660   30.6840   23.3720 O.2       1 ASP        -0.3944
     22 CB         18.2310   29.1630   24.3360 C.3       1 ASP         0.0406
     23 CG         17.2250   28.5600   25.2710 C.2       1 ASP         0.0393
     24 OD1        17.2000   28.9960   26.4420 O.co2     1 ASP        -0.5688
     25 OD2        16.4630   27.6650   24.8350 O.co2     1 ASP        -0.5688
     26 CD1        18.5040   34.2610   19.5410 C.3       1 1OL        -0.0626
     27 CD2        20.2700   32.5050   19.8340 C.3       1 1OL        -0.0626
     28 CG         19.2120   33.3590   20.5450 C.3       1 1OL        -0.0446
     29 CB         19.8770   34.2000   21.6510 C.3       1 1OL        -0.0251
     30 N          19.1690   32.6450   23.3900 N.am      1 1OL        -0.2794
     31 CA         20.3140   33.3830   22.8760 C.3       1 1OL         0.0683
     32 C          20.9920   34.2860   23.9390 C.3       1 1OL         0.0804
     33 O          20.0970   35.3160   24.3740 O.3       1 1OL        -0.3894
     34 CM         21.4410   33.4560   25.1450 C.3       1 1OL        -0.0052
     35 CA         22.7240   33.9080   25.8560 C.3       1 1OL         0.0483
     36 CB         22.7020   33.4210   27.3060 C.3       1 1OL        -0.0452
     37 C          23.9340   33.3320   25.1300 C.2       1 1OL         0.1811
     38 O          23.9630   32.1460   24.8050 O.2       1 1OL        -0.3966
     39 N          24.9340   34.1650   24.8620 N.am      1 VAL        -0.2652
     40 CA         26.1550   33.6530   24.2480 C.3       1 VAL         0.1332
     41 C          26.9260   32.8090   25.2750 C.2       1 VAL         0.2042
     42 O          26.8330   33.0570   26.4770 O.2       1 VAL        -0.3944
     43 CB         27.0510   34.8040   23.7610 C.3       1 VAL        -0.0063
     44 CG1        27.5890   35.5710   24.9460 C.3       1 VAL        -0.0584
     45 CG2        28.1950   34.2500   22.8890 C.3       1 VAL        -0.0584
     46 N          27.6690   31.8110   24.8080 N.am      1 GLU        -0.2636
     47 CA         28.4500   30.9720   25.7120 C.3       1 GLU         0.1324
     48 C          29.7510   31.6970   25.9940 C.2       1 GLU         0.2036
     49 O          30.2440   32.4370   25.1490 O.2       1 GLU        -0.3944
     50 CB         28.7620   29.6060   25.0690 C.3       1 GLU        -0.0008
     51 CG         27.5390   28.8890   24.4820 C.3       1 GLU         0.0044
     52 CD         27.8170   27.4530   24.0460 C.2       1 GLU         0.0350
     53 OE1        28.8130   27.2120   23.3270 O.co2     1 GLU        -0.5690
     54 OE2        27.0230   26.5630   24.4180 O.co2     1 GLU        -0.5690
     55 N          30.3080   31.5050   27.1820 N.am      1 PHE        -0.2677
     56 CA         31.5780   32.1460   27.5100 C.3       1 PHE         0.1039
     57 C          32.6270   31.0960   27.8940 C.2       1 PHE         0.0621
     58 O          33.6730   31.0080   27.2060 O.co2     1 PHE        -0.5664
     59 CB         31.3970   33.1480   28.6520 C.3       1 PHE         0.0159
     60 CG         32.5980   34.0170   28.8900 C.ar      1 PHE        -0.0392
     61 CD1        33.1390   34.7760   27.8610 C.ar      1 PHE        -0.0602
     62 CD2        33.1800   34.0960   30.1530 C.ar      1 PHE        -0.0602
     63 CE1        34.2490   35.6120   28.0840 C.ar      1 PHE        -0.0686
     64 CE2        34.2920   34.9290   30.3890 C.ar      1 PHE        -0.0686
     65 CZ         34.8230   35.6870   29.3460 C.ar      1 PHE        -0.0687
     66 OXT        32.3850   30.3620   28.8750 O.co2     1 PHE        -0.5664
     67 H1         10.2405   29.0078   23.5247 H         1 GLU         0.2015
     68 H2         10.9561   30.3740   22.9495 H         1 GLU         0.2015
     69 H3         11.6749   29.5131   24.1543 H         1 GLU         0.2015
     70 H4         12.0480   27.6465   22.7269 H         1 GLU         0.1099
     71 H5         11.0764   27.4422   20.6889 H         1 GLU         0.0363
     72 H6         11.2935   29.1806   20.2921 H         1 GLU         0.0363
     73 H7          9.2425   29.7598   21.0774 H         1 GLU         0.0434
     74 H8          9.3201   28.5982   22.4455 H         1 GLU         0.0434
     75 H9         12.7178   30.9749   22.9579 H         1 LEU         0.1884
     76 H10        15.1652   30.7784   21.2962 H         1 LEU         0.0800
     77 H11        15.3513   33.2108   22.5166 H         1 LEU         0.0315
     78 H12        13.5702   32.9785   22.5035 H         1 LEU         0.0315
     79 H13        13.4811   33.0063   20.1391 H         1 LEU         0.0298
     80 H14        14.5711   35.1903   19.6538 H         1 LEU         0.0232
     81 H15        15.5786   35.0083   21.1297 H         1 LEU         0.0232
     82 H16        13.7970   35.1861   21.2746 H         1 LEU         0.0232
     83 H17        15.4494   31.5650   19.6754 H         1 LEU         0.0232
     84 H18        16.5469   32.8965   20.1744 H         1 LEU         0.0232
     85 H19        15.5187   33.0800   18.7129 H         1 LEU         0.0232
     86 H20        17.1941   30.7242   22.0870 H         1 ASP         0.1884
     87 H21        17.6327   31.1255   25.0044 H         1 ASP         0.0819
     88 H22        19.2326   29.0557   24.7780 H         1 ASP         0.0478
     89 H23        18.1925   28.6218   23.3791 H         1 ASP         0.0478
     90 H24        18.0359   33.6438   18.7600 H         1 1OL         0.0232
     91 H25        19.2349   34.9422   19.0809 H         1 1OL         0.0232
     92 H26        17.7301   34.8479   20.0574 H         1 1OL         0.0232
     93 H27        20.7736   31.8589   20.5682 H         1 1OL         0.0232
     94 H28        21.0106   33.1624   19.3552 H         1 1OL         0.0232
     95 H29        19.7843   31.8814   19.0690 H         1 1OL         0.0232
     96 H30        18.4684   32.6923   21.0061 H         1 1OL         0.0296
     97 H31        19.1598   34.9651   21.9829 H         1 1OL         0.0291
     98 H32        20.7657   34.6900   21.2265 H         1 1OL         0.0291
     99 H33        18.3227   33.1320   23.6059 H         1 1OL         0.1855
    100 H34        21.0635   32.6483   22.5467 H         1 1OL         0.0582
    101 H35        21.8767   34.7559   23.4846 H         1 1OL         0.0618
    102 H36        19.8467   35.8515   23.6302 H         1 1OL         0.2099
    103 H37        20.6264   33.4749   25.8840 H         1 1OL         0.0318
    104 H38        21.5981   32.4238   24.7988 H         1 1OL         0.0318
    105 H39        22.7814   35.0064   25.8429 H         1 1OL         0.0536
    106 H40        23.6215   33.7449   27.8155 H         1 1OL         0.0257
    107 H41        22.6408   32.3228   27.3231 H         1 1OL         0.0257
    108 H42        21.8280   33.8451   27.8220 H         1 1OL         0.0257
    109 H43        24.8504   35.1374   25.0798 H         1 VAL         0.1883
    110 H44        25.8850   33.0220   23.3884 H         1 VAL         0.0802
    111 H45        26.4457   35.4880   23.1480 H         1 VAL         0.0343
    112 H46        28.2288   36.3925   24.5912 H         1 VAL         0.0234
    113 H47        28.1791   34.8955   25.5828 H         1 VAL         0.0234
    114 H48        26.7510   35.9836   25.5269 H         1 VAL         0.0234
    115 H49        27.7720   33.6981   22.0367 H         1 VAL         0.0234
    116 H50        28.8197   33.5732   23.4904 H         1 VAL         0.0234
    117 H51        28.8095   35.0833   22.5176 H         1 VAL         0.0234
    118 H52        27.6934   31.6324   23.8244 H         1 GLU         0.1883
    119 H53        27.8932   30.8163   26.6478 H         1 GLU         0.0801
    120 H54        29.2054   28.9566   25.8382 H         1 GLU         0.0330
    121 H55        29.4894   29.7647   24.2593 H         1 GLU         0.0330
    122 H56        27.1918   29.4563   23.6059 H         1 GLU         0.0433
    123 H57        26.7472   28.8724   25.2454 H         1 GLU         0.0433
    124 H58        29.8567   30.9193   27.8553 H         1 PHE         0.1877
    125 H59        31.9339   32.6883   26.6216 H         1 PHE         0.0749
    126 H60        31.1855   32.5880   29.5748 H         1 PHE         0.0467
    127 H61        30.5414   33.7965   28.4124 H         1 PHE         0.0467
    128 H62        32.7000   34.7239   26.8712 H         1 PHE         0.0557
    129 H63        32.7714   33.5078   30.9667 H         1 PHE         0.0557
    130 H64        34.6567   36.1986   27.2687 H         1 PHE         0.0599
    131 H65        34.7330   34.9803   31.3779 H         1 PHE         0.0599
    132 H66        35.6780   36.3304   29.5193 H         1 PHE         0.0559
@<TRIPOS>BOND
     1    3    2 1  
     2    2    5 1  
     3    2    1 1  
     4    5    6 1  
     5    6    7 1  
     6    7    8 ar 
     7    7    9 ar 
     8    3    4 2  
     9   12   11 1  
    10   11   14 1  
    11   11   10 1  
    12   14   15 1  
    13   15   17 1  
    14   15   16 1  
    15   12   13 2  
    16   20   19 1  
    17   19   22 1  
    18   19   18 1  
    19   22   23 1  
    20   23   24 ar 
    21   23   25 ar 
    22   20   21 2  
    23   28   26 1  
    24   28   27 1  
    25   29   28 1  
    26   31   29 1  
    27   30   31 1  
    28   31   32 1  
    29   32   33 1  
    30   34   35 1  
    31   35   37 1  
    32   35   36 1  
    33   37   38 2  
    34   40   41 1  
    35   40   43 1  
    36   39   40 1  
    37   43   44 1  
    38   43   45 1  
    39   41   42 2  
    40   47   48 1  
    41   47   50 1  
    42   46   47 1  
    43   50   51 1  
    44   51   52 1  
    45   52   53 ar 
    46   52   54 ar 
    47   48   49 2  
    48   56   57 1  
    49   56   59 1  
    50   55   56 1  
    51   59   60 1  
    52   60   62 ar 
    53   60   61 ar 
    54   61   63 ar 
    55   63   65 ar 
    56   64   65 ar 
    57   62   64 ar 
    58   57   66 ar 
    59   57   58 ar 
    60   10    3 am 
    61   18   12 am 
    62   41   46 am 
    63   48   55 am 
    64   32   34 1  
    65   37   39 am 
    66   30   20 am 
    67    1   67 1  
    68    1   68 1  
    69    1   69 1  
    70    2   70 1  
    71    5   71 1  
    72    5   72 1  
    73    6   73 1  
    74    6   74 1  
    75   10   75 1  
    76   11   76 1  
    77   14   77 1  
    78   14   78 1  
    79   15   79 1  
    80   16   80 1  
    81   16   81 1  
    82   16   82 1  
    83   17   83 1  
    84   17   84 1  
    85   17   85 1  
    86   18   86 1  
    87   19   87 1  
    88   22   88 1  
    89   22   89 1  
    90   26   90 1  
    91   26   91 1  
    92   26   92 1  
    93   27   93 1  
    94   27   94 1  
    95   27   95 1  
    96   28   96 1  
    97   29   97 1  
    98   29   98 1  
    99   30   99 1  
   100   31  100 1  
   101   32  101 1  
   102   33  102 1  
   103   34  103 1  
   104   34  104 1  
   105   35  105 1  
   106   36  106 1  
   107   36  107 1  
   108   36  108 1  
   109   39  109 1  
   110   40  110 1  
   111   43  111 1  
   112   44  112 1  
   113   44  113 1  
   114   44  114 1  
   115   45  115 1  
   116   45  116 1  
   117   45  117 1  
   118   46  118 1  
   119   47  119 1  
   120   50  120 1  
   121   50  121 1  
   122   51  122 1  
   123   51  123 1  
   124   55  124 1  
   125   56  125 1  
   126   59  126 1  
   127   59  127 1  
   128   61  128 1  
   129   62  129 1  
   130   63  130 1  
   131   64  131 1  
   132   65  132 1  
@<TRIPOS>SUBSTRUCTURE
     1 GLU         1

