### 
### Created by X-TOOL on Mon Sep 10 21:12:50 2018
### 

@<TRIPOS>MOLECULE
1m51_ligand
   54    56     1     0     0
SMALL
GAST_HUCK


@<TRIPOS>ATOM
      1 O13        37.0340   39.3300   34.0690 O.2       1 TSX        -0.3872
      2 C5         37.1400   40.4010   33.5010 C.2       1 TSX         0.3203
      3 N4         36.2240   40.7180   32.4980 N.am      1 TSX        -0.1594
      4 C31        35.2460   39.6580   32.1950 C.3       1 TSX         0.0866
      5 C32        33.8140   39.8250   32.5280 C.2       1 TSX        -0.0625
      6 C33        32.8080   39.1790   31.9170 C.2       1 TSX        -0.1152
      7 N6         38.1410   41.2270   33.9000 N.am      1 TSX        -0.2014
      8 C41        39.0810   40.8890   34.9830 C.3       1 TSX         0.0557
      9 C42        40.2060   39.9490   34.4560 C.3       1 TSX        -0.0278
     10 C43        41.2930   39.5840   35.5170 C.3       1 TSX        -0.0536
     11 C44        40.8800   38.4050   36.4370 C.3       1 TSX        -0.0652
     12 C7         38.2540   42.4850   33.2590 C.2       1 TSX         0.1261
     13 N12        39.1700   43.4230   33.5300 N.2       1 TSX        -0.2932
     14 C8         37.3950   42.8590   32.2500 C.2       1 TSX         0.1515
     15 C3         36.2910   41.9140   31.8230 C.2       1 TSX         0.2260
     16 O12        35.5300   42.2790   30.9240 O.2       1 TSX        -0.4041
     17 N9         37.7050   44.0890   31.8070 N.pl3     1 TSX        -0.2625
     18 C11        38.8510   44.3900   32.6400 C.2       1 TSX         0.1223
     19 C14        39.6100   45.6860   32.5210 C.3       1 TSX         0.0516
     20 C21        38.8670   46.6470   33.4400 C.ar      1 TSX        -0.0390
     21 C22        37.9330   47.5730   32.9620 C.ar      1 TSX        -0.0705
     22 C23        37.3140   48.3970   33.9160 C.ar      1 TSX        -0.0468
     23 C24        37.6520   48.2720   35.2860 C.ar      1 TSX         0.0600
     24 C25        38.5820   47.3420   35.7290 C.ar      1 TSX        -0.0468
     25 C26        39.1950   46.5180   34.7890 C.ar      1 TSX        -0.0705
     26 N          37.0680   49.0560   36.3250 N.am      1 TSX        -0.2377
     27 C          36.5170   50.2780   36.1330 C.2       1 TSX         0.1989
     28 O          36.4540   50.8550   35.0450 O.2       1 TSX        -0.3860
     29 C4         35.9530   50.9380   37.3690 C.3       1 TSX         0.0313
     30 H1         35.5873   38.7566   32.7251 H         1 TSX         0.0756
     31 H2         35.2968   39.4865   31.1097 H         1 TSX         0.0756
     32 H3         33.5579   40.5213   33.3252 H         1 TSX         0.0696
     33 H4         31.7789   39.3599   32.2237 H         1 TSX         0.0290
     34 H5         33.0212   38.4741   31.1147 H         1 TSX         0.0290
     35 H6         38.5344   40.3813   35.7914 H         1 TSX         0.0584
     36 H7         39.5339   41.8134   35.3708 H         1 TSX         0.0584
     37 H8         40.7037   40.4482   33.6116 H         1 TSX         0.0289
     38 H9         39.7392   39.0161   34.1071 H         1 TSX         0.0289
     39 H10        41.4793   40.4680   36.1446 H         1 TSX         0.0263
     40 H11        42.2176   39.3077   34.9890 H         1 TSX         0.0263
     41 H12        41.6867   38.2015   37.1567 H         1 TSX         0.0230
     42 H13        40.6995   37.5086   35.8256 H         1 TSX         0.0230
     43 H14        39.9612   38.6689   36.9811 H         1 TSX         0.0230
     44 H15        37.2533   44.6593   31.0778 H         1 TSX         0.2276
     45 H16        39.5964   46.0510   31.4834 H         1 TSX         0.0642
     46 H17        40.6515   45.5587   32.8513 H         1 TSX         0.0642
     47 H18        37.6986   47.6505   31.9065 H         1 TSX         0.0526
     48 H19        36.5775   49.1287   33.6040 H         1 TSX         0.0488
     49 H20        38.8254   47.2591   36.7821 H         1 TSX         0.0488
     50 H21        39.9236   45.7799   35.1043 H         1 TSX         0.0526
     51 H22        37.0654   48.6802   37.2517 H         1 TSX         0.2235
     52 H23        35.5332   51.9190   37.1017 H         1 TSX         0.0471
     53 H24        36.7539   51.0719   38.1111 H         1 TSX         0.0471
     54 H25        35.1612   50.3039   37.7944 H         1 TSX         0.0471
@<TRIPOS>BOND
     1    1    2 2  
     2    2    3 am 
     3    2    7 am 
     4    3    4 1  
     5    3   15 am 
     6    4    5 1  
     7    5    6 2  
     8    7    8 1  
     9    7   12 am 
    10    8    9 1  
    11    9   10 1  
    12   10   11 1  
    13   12   13 1  
    14   12   14 2  
    15   13   18 2  
    16   14   15 1  
    17   14   17 1  
    18   15   16 2  
    19   17   18 1  
    20   18   19 1  
    21   19   20 1  
    22   20   21 ar 
    23   20   25 ar 
    24   21   22 ar 
    25   22   23 ar 
    26   23   24 ar 
    27   23   26 1  
    28   24   25 ar 
    29   26   27 am 
    30   27   28 2  
    31   27   29 1  
    32    4   30 1  
    33    4   31 1  
    34    5   32 1  
    35    6   33 1  
    36    6   34 1  
    37    8   35 1  
    38    8   36 1  
    39    9   37 1  
    40    9   38 1  
    41   10   39 1  
    42   10   40 1  
    43   11   41 1  
    44   11   42 1  
    45   11   43 1  
    46   17   44 1  
    47   19   45 1  
    48   19   46 1  
    49   21   47 1  
    50   22   48 1  
    51   24   49 1  
    52   25   50 1  
    53   26   51 1  
    54   29   52 1  
    55   29   53 1  
    56   29   54 1  
@<TRIPOS>SUBSTRUCTURE
     1 TSX         1

