### 
### Created by X-TOOL on Sun Sep  9 21:50:03 2018
### 

@<TRIPOS>MOLECULE
1m5b_ligand
   28    29     1     0     0
SMALL
GAST_HUCK


@<TRIPOS>ATOM
      1 O1         63.4490   69.4440   55.5010 O.co2     1 NON        -0.5641
      2 C1         63.2100   68.4620   54.7240 C.2       1 NON         0.0860
      3 O2         62.8690   67.3160   55.0770 O.co2     1 NON        -0.5641
      4 C2         63.3550   68.7190   53.1850 C.3       1 NON         0.0338
      5 N1         63.9980   70.1050   53.0420 N.4       1 NON         0.2338
      6 C3         64.1790   67.6320   52.4770 C.3       1 NON         0.0326
      7 C4         63.7360   67.4030   51.0900 C.2       1 NON         0.0574
      8 C5         64.1080   67.8720   49.8640 C.2       1 NON         0.1747
      9 O3         63.3650   67.3360   48.8410 O.3       1 NON        -0.1802
     10 N2         62.3850   66.4030   49.4990 N.am      1 NON        -0.1387
     11 C6         62.6340   66.4660   50.8370 C.2       1 NON         0.2049
     12 O4         61.9960   65.8090   51.6970 O.2       1 NON        -0.4137
     13 C7         65.1240   68.8070   49.4860 C.2       1 NON         0.1820
     14 N3         66.0140   69.4970   50.2750 N.2       1 NON        -0.1384
     15 N4         66.7740   70.2570   49.4830 N.pl3     1 NON        -0.0927
     16 N5         66.4100   70.0760   48.2770 N.2       1 NON        -0.0489
     17 N6         65.4120   69.2060   48.2150 N.2       1 NON        -0.1719
     18 C8         67.8120   71.1050   50.0570 C.3       1 NON         0.0873
     19 H1         62.3543   68.7358   52.7287 H         1 NON         0.1043
     20 H2         64.1149   70.3219   52.0646 H         1 NON         0.2011
     21 H3         64.8977   70.1065   53.4964 H         1 NON         0.2011
     22 H4         63.4037   70.7970   53.4710 H         1 NON         0.2011
     23 H5         64.0797   66.6916   53.0390 H         1 NON         0.0446
     24 H6         65.2344   67.9416   52.4638 H         1 NON         0.0446
     25 H7         61.6891   65.8470   49.0445 H         1 NON         0.2316
     26 H8         67.8200   70.9854   51.1505 H         1 NON         0.0640
     27 H9         67.6080   72.1560   49.8046 H         1 NON         0.0640
     28 H10        68.7910   70.8133   49.6491 H         1 NON         0.0640
@<TRIPOS>BOND
     1    2    1 ar 
     2    2    4 1  
     3    2    3 ar 
     4    4    6 1  
     5    4    5 1  
     6    6    7 1  
     7    7   11 1  
     8    7    8 2  
     9    8   13 1  
    10    8    9 1  
    11    9   10 1  
    12   10   11 am 
    13   11   12 2  
    14   13   17 1  
    15   13   14 2  
    16   14   15 1  
    17   15   18 1  
    18   15   16 1  
    19   16   17 2  
    20    4   19 1  
    21    5   20 1  
    22    5   21 1  
    23    5   22 1  
    24    6   23 1  
    25    6   24 1  
    26   10   25 1  
    27   18   26 1  
    28   18   27 1  
    29   18   28 1  
@<TRIPOS>SUBSTRUCTURE
     1 NON         1

