### 
### Created by X-TOOL on Mon Sep 10 21:12:49 2018
### 

@<TRIPOS>MOLECULE
1m5c_ligand
   20    20     1     0     0
SMALL
GAST_HUCK


@<TRIPOS>ATOM
      1 O1         43.5150   15.7520   18.9240 O.co2     1 BRH        -0.5641
      2 C1         42.7280   14.7930   18.6030 C.2       1 BRH         0.0878
      3 O2         42.1870   13.9780   19.4040 O.co2     1 BRH        -0.5641
      4 C2         42.4210   14.6000   17.0720 C.3       1 BRH         0.0468
      5 N1         41.4380   13.5120   16.8750 N.4       1 BRH         0.2350
      6 C3         41.9060   15.9490   16.5660 C.3       1 BRH         0.0838
      7 C4         42.2670   16.2440   15.1720 C.2       1 BRH         0.1544
      8 C5         41.5630   16.6960   14.0670 C.2       1 BRH         0.0826
      9 BR1        39.7860   17.1200   13.9400 Br        1 BRH        -0.0940
     10 C6         42.5980   16.7580   12.9860 C.2       1 BRH         0.1853
     11 O3         42.4120   17.1220   11.7780 O.2       1 BRH        -0.4300
     12 N2         43.7990   16.3510   13.5190 N.am      1 BRH        -0.1354
     13 O4         43.6040   16.0490   14.8060 O.3       1 BRH        -0.1554
     14 H1         43.3456   14.3378   16.5368 H         1 BRH         0.1061
     15 H2         41.2523   13.4011   15.8905 H         1 BRH         0.2012
     16 H3         40.5817   13.7419   17.3546 H         1 BRH         0.2012
     17 H4         41.8102   12.6517   17.2457 H         1 BRH         0.2012
     18 H5         42.3235   16.7403   17.2059 H         1 BRH         0.0625
     19 H6         40.8090   15.9525   16.6470 H         1 BRH         0.0625
     20 H7         44.6681   16.2914   13.0280 H         1 BRH         0.2325
@<TRIPOS>BOND
     1    1    2 ar 
     2    2    4 1  
     3    2    3 ar 
     4    4    6 1  
     5    4    5 1  
     6    6    7 1  
     7    7   13 1  
     8    7    8 2  
     9    8   10 1  
    10    8    9 1  
    11   10   12 am 
    12   10   11 2  
    13   12   13 1  
    14    4   14 1  
    15    5   15 1  
    16    5   16 1  
    17    5   17 1  
    18    6   18 1  
    19    6   19 1  
    20   12   20 1  
@<TRIPOS>SUBSTRUCTURE
     1 BRH         1

