### 
### Created by X-TOOL on Mon Sep 10 21:12:49 2018
### 

@<TRIPOS>MOLECULE
1m5d_ligand
   20    20     1     0     0
SMALL
GAST_HUCK


@<TRIPOS>ATOM
      1 O1         43.3010   15.8890   18.9860 O.co2     1 BRH        -0.5641
      2 C1         42.5030   14.9650   18.6150 C.2       1 BRH         0.0878
      3 O2         41.8800   14.1750   19.3880 O.co2     1 BRH        -0.5641
      4 C2         42.2900   14.7860   17.0670 C.3       1 BRH         0.0468
      5 N1         41.3180   13.6690   16.8220 N.4       1 BRH         0.2350
      6 C3         41.8340   16.1210   16.5010 C.3       1 BRH         0.0838
      7 C4         42.0400   16.2280   15.0500 C.2       1 BRH         0.1544
      8 C5         41.1810   16.4000   14.0010 C.2       1 BRH         0.0826
      9 BR1        39.3880   16.5720   14.0780 Br        1 BRH        -0.0940
     10 C6         42.0610   16.4150   12.7880 C.2       1 BRH         0.1853
     11 O3         41.6860   16.5490   11.5880 O.2       1 BRH        -0.4300
     12 N2         43.3530   16.2550   13.2030 N.am      1 BRH        -0.1354
     13 O4         43.3430   16.1430   14.5470 O.3       1 BRH        -0.1554
     14 H1         43.2474   14.5168   16.5971 H         1 BRH         0.1061
     15 H2         41.1813   13.5541   15.8299 H         1 BRH         0.2012
     16 H3         40.4367   13.8884   17.2593 H         1 BRH         0.2012
     17 H4         41.6831   12.8142   17.2121 H         1 BRH         0.2012
     18 H5         42.4003   16.9237   16.9959 H         1 BRH         0.0625
     19 H6         40.7617   16.2442   16.7131 H         1 BRH         0.0625
     20 H7         44.1615   16.2261   12.6152 H         1 BRH         0.2325
@<TRIPOS>BOND
     1    2    1 ar 
     2    2    4 1  
     3    2    3 ar 
     4    4    6 1  
     5    4    5 1  
     6    6    7 1  
     7    7   13 1  
     8    7    8 2  
     9    8   10 1  
    10    8    9 1  
    11   10   12 am 
    12   10   11 2  
    13   12   13 1  
    14    4   14 1  
    15    5   15 1  
    16    5   16 1  
    17    5   17 1  
    18    6   18 1  
    19    6   19 1  
    20   12   20 1  
@<TRIPOS>SUBSTRUCTURE
     1 BRH         1

