### 
### Created by X-TOOL on Sun Sep  9 21:50:03 2018
### 

@<TRIPOS>MOLECULE
1m5e_ligand
   24    24     1     0     0
SMALL
GAST_HUCK


@<TRIPOS>ATOM
      1 O1         61.8200   66.3810   47.8210 O.co2     1 NON        -0.5623
      2 C1         62.4220   66.6670   48.8940 C.2       1 NON         0.0652
      3 O2         62.0550   66.2640   50.0650 O.co2     1 NON        -0.5623
      4 C2         63.6410   67.5560   48.8180 C.2       1 NON         0.0765
      5 N1         64.1100   68.0520   47.6600 N.2       1 NON        -0.1466
      6 O3         65.2120   68.8120   47.9830 O.3       1 NON        -0.1728
      7 C3         65.4180   68.7830   49.3210 C.2       1 NON         0.1346
      8 C4         64.4580   67.9980   49.9300 C.2       1 NON         0.0025
      9 C5         64.3150   67.7010   51.4000 C.3       1 NON         0.0215
     10 C6         63.2840   68.5750   52.1300 C.3       1 NON         0.0319
     11 N2         63.6390   70.0330   51.9890 N.4       1 NON         0.2335
     12 C7         63.1600   68.1700   53.6260 C.2       1 NON         0.0856
     13 O4         63.3660   69.1300   54.4350 O.co2     1 NON        -0.5642
     14 O5         62.8690   66.9800   53.8450 O.co2     1 NON        -0.5642
     15 C8         66.5660   69.5620   49.8120 C.3       1 NON         0.0040
     16 H1         65.2940   67.8532   51.8779 H         1 NON         0.0414
     17 H2         64.0128   66.6491   51.5100 H         1 NON         0.0414
     18 H3         62.3049   68.4152   51.6548 H         1 NON         0.1038
     19 H4         62.9548   70.5936   52.4723 H         1 NON         0.2011
     20 H5         63.6495   70.2834   51.0127 H         1 NON         0.2011
     21 H6         64.5501   70.1971   52.3878 H         1 NON         0.2011
     22 H7         66.6343   69.4647   50.9056 H         1 NON         0.0423
     23 H8         66.4314   70.6208   49.5459 H         1 NON         0.0423
     24 H9         67.4903   69.1828   49.3517 H         1 NON         0.0423
@<TRIPOS>BOND
     1    2    1 ar 
     2    2    4 1  
     3    2    3 ar 
     4    4    8 1  
     5    4    5 2  
     6    5    6 1  
     7    6    7 1  
     8    7   15 1  
     9    8    7 2  
    10    8    9 1  
    11    9   10 1  
    12   10   12 1  
    13   10   11 1  
    14   12   14 ar 
    15   12   13 ar 
    16    9   16 1  
    17    9   17 1  
    18   10   18 1  
    19   11   19 1  
    20   11   20 1  
    21   11   21 1  
    22   15   22 1  
    23   15   23 1  
    24   15   24 1  
@<TRIPOS>SUBSTRUCTURE
     1 NON         1

