### 
### Created by X-TOOL on Sun Sep  9 21:50:03 2018
### 

@<TRIPOS>MOLECULE
1m5f_ligand
   24    24     1     0     0
SMALL
GAST_HUCK


@<TRIPOS>ATOM
      1 O1         61.7370   66.3490   48.1020 O.co2     1 NON        -0.5623
      2 C1         62.2960   66.6200   49.2060 C.2       1 NON         0.0652
      3 O2         61.9050   66.1690   50.3560 O.co2     1 NON        -0.5623
      4 C2         63.5120   67.5050   49.1900 C.2       1 NON         0.0765
      5 N1         64.0350   68.0000   48.0520 N.2       1 NON        -0.1466
      6 O3         65.1250   68.7590   48.4210 O.3       1 NON        -0.1728
      7 C3         65.2720   68.7340   49.7670 C.2       1 NON         0.1346
      8 C4         64.2790   67.9490   50.3400 C.2       1 NON         0.0025
      9 C5         64.0810   67.6630   51.8050 C.3       1 NON         0.0215
     10 C6         63.0640   68.5700   52.5170 C.3       1 NON         0.0319
     11 N2         63.4570   70.0130   52.3740 N.4       1 NON         0.2335
     12 C7         62.9190   68.1760   54.0220 C.2       1 NON         0.0856
     13 O4         63.1590   69.1450   54.8210 O.co2     1 NON        -0.5642
     14 O5         62.5920   66.9980   54.2540 O.co2     1 NON        -0.5642
     15 C8         66.4020   69.5160   50.2960 C.3       1 NON         0.0040
     16 H1         65.0519   67.7793   52.3088 H         1 NON         0.0414
     17 H2         63.7380   66.6227   51.9054 H         1 NON         0.0414
     18 H3         62.0856   68.4323   52.0335 H         1 NON         0.1038
     19 H4         62.7812   70.5936   52.8455 H         1 NON         0.2011
     20 H5         63.4867   70.2579   51.3967 H         1 NON         0.2011
     21 H6         64.3667   70.1557   52.7839 H         1 NON         0.2011
     22 H7         66.4284   69.4268   51.3921 H         1 NON         0.0423
     23 H8         66.2790   70.5729   50.0171 H         1 NON         0.0423
     24 H9         67.3427   69.1325   49.8742 H         1 NON         0.0423
@<TRIPOS>BOND
     1    2    1 ar 
     2    2    4 1  
     3    2    3 ar 
     4    4    8 1  
     5    4    5 2  
     6    5    6 1  
     7    6    7 1  
     8    7   15 1  
     9    8    7 2  
    10    8    9 1  
    11    9   10 1  
    12   10   12 1  
    13   10   11 1  
    14   12   14 ar 
    15   12   13 ar 
    16    9   16 1  
    17    9   17 1  
    18   10   18 1  
    19   11   19 1  
    20   11   20 1  
    21   11   21 1  
    22   15   22 1  
    23   15   23 1  
    24   15   24 1  
@<TRIPOS>SUBSTRUCTURE
     1 NON         1

