### 
### Created by X-TOOL on Mon Sep 10 21:12:50 2018
### 

@<TRIPOS>MOLECULE
1m7d_ligand
   72    74     1     0     0
SMALL
GAST_HUCK


@<TRIPOS>ATOM
      1 C1         -9.9230   24.7930   33.5390 C.3       1 RAM         0.1882
      2 C2        -10.8210   25.9400   33.0460 C.3       1 RAM         0.1341
      3 O2        -11.9540   26.1010   33.8900 O.3       1 RAM        -0.3841
      4 C3        -11.2650   25.6570   31.6060 C.3       1 RAM         0.1140
      5 O3        -12.1460   26.6790   31.1770 O.3       1 RAM        -0.3864
      6 C4        -11.9580   24.2910   31.5120 C.3       1 RAM         0.1095
      7 O4        -12.3000   24.0050   30.1620 O.3       1 RAM        -0.3866
      8 C5        -11.0370   23.1970   32.0610 C.3       1 RAM         0.0873
      9 O5        -10.6270   23.5280   33.4100 O.3       1 RAM        -0.3431
     10 C6        -11.7620   21.8530   32.0480 C.3       1 RAM        -0.0361
     11 C1         -6.3260   21.8850   32.4770 C.3       1 RAE         0.1626
     12 C2         -7.4990   22.8000   32.1440 C.3       1 RAE         0.0274
     13 C3         -7.6750   23.8680   33.2260 C.3       1 RAE         0.0946
     14 O3         -8.6780   24.8160   32.7980 O.3       1 RAE        -0.3426
     15 C4         -6.3390   24.5970   33.4570 C.3       1 RAE         0.1074
     16 O4         -6.4660   25.5610   34.4830 O.3       1 RAE        -0.3867
     17 C5         -5.2490   23.6000   33.8060 C.3       1 RAE         0.0871
     18 O5         -5.1290   22.6540   32.7300 O.3       1 RAE        -0.3456
     19 C6         -3.9190   24.3040   34.0400 C.3       1 RAE        -0.0361
     20 C1         -5.9780   17.3600   33.6890 C.3       1 MAG         0.1845
     21 C2         -6.7820   18.6400   33.4380 C.3       1 MAG         0.1213
     22 C3         -5.8830   19.8580   33.6740 C.3       1 MAG         0.1175
     23 C4         -5.1630   19.7990   35.0330 C.3       1 MAG         0.1120
     24 C5         -4.4700   18.4510   35.1980 C.3       1 MAG         0.1130
     25 C6         -3.7940   18.3190   36.5520 C.3       1 MAG         0.0730
     26 C7         -8.4920   19.1230   31.7650 C.2       1 MAG         0.1733
     27 C8         -8.8540   19.0840   30.2900 C.3       1 MAG         0.0257
     28 CM         -6.0730   14.9770   33.6260 C.3       1 MAG         0.0395
     29 N2         -7.2760   18.6610   32.0690 N.am      1 MAG        -0.2766
     30 O1         -6.7820   16.2040   33.4690 O.3       1 MAG        -0.3522
     31 O3         -6.6710   21.0510   33.5870 O.3       1 MAG        -0.3429
     32 O4         -4.1950   20.8300   35.0950 O.3       1 MAG        -0.3865
     33 O5         -5.4180   17.3910   35.0140 O.3       1 MAG        -0.3408
     34 O6         -4.7510   18.4010   37.5930 O.3       1 MAG        -0.3924
     35 O7         -9.2830   19.5510   32.6020 O.2       1 MAG        -0.3974
     36 H1         -9.6947   24.9516   34.6033 H         1 RAM         0.0937
     37 H2        -10.2396   26.8736   33.0608 H         1 RAM         0.0671
     38 H3        -12.4912   26.8139   33.5646 H         1 RAM         0.2101
     39 H4        -10.3789   25.6502   30.9543 H         1 RAM         0.0648
     40 H5        -11.6992   27.5166   31.2133 H         1 RAM         0.2100
     41 H6        -12.8783   24.3172   32.1140 H         1 RAM         0.0646
     42 H7        -12.7277   23.1579   30.1175 H         1 RAM         0.2100
     43 H8        -10.1437   23.1274   31.4229 H         1 RAM         0.0621
     44 H9        -11.0950   21.0728   32.4433 H         1 RAM         0.0255
     45 H10       -12.0495   21.6014   31.0165 H         1 RAM         0.0255
     46 H11       -12.6636   21.9167   32.6749 H         1 RAM         0.0255
     47 H12        -6.1341   21.2375   31.6087 H         1 RAM         0.0910
     48 H13        -8.4180   22.1993   32.0766 H         1 RAM         0.0340
     49 H14        -7.3107   23.2918   31.1783 H         1 RAM         0.0340
     50 H15        -7.9973   23.3909   34.1633 H         1 RAM         0.0625
     51 H16        -6.0577   25.1124   32.5269 H         1 RAM         0.0645
     52 H17        -7.1256   26.1988   34.2368 H         1 RAM         0.2100
     53 H18        -5.5322   23.0669   34.7256 H         1 RAM         0.0621
     54 H19        -3.1491   23.5594   34.2905 H         1 RAM         0.0255
     55 H20        -4.0230   25.0176   34.8707 H         1 RAM         0.0255
     56 H21        -3.6242   24.8435   33.1278 H         1 RAM         0.0255
     57 H22        -5.1458   17.3303   32.9703 H         1 RAM         0.0934
     58 H23        -7.6348   18.6750   34.1319 H         1 RAM         0.0633
     59 H24        -5.1190   19.8811   32.8830 H         1 RAM         0.0649
     60 H25        -5.8969   19.9341   35.8412 H         1 RAM         0.0647
     61 H26        -3.6963   18.3664   34.4207 H         1 RAM         0.0647
     62 H27        -3.0594   19.1291   36.6707 H         1 RAM         0.0584
     63 H28        -3.2808   17.3476   36.6075 H         1 RAM         0.0584
     64 H29        -9.8691   19.4843   30.1509 H         1 RAM         0.0467
     65 H30        -8.8172   18.0450   29.9307 H         1 RAM         0.0467
     66 H31        -8.1379   19.6945   29.7204 H         1 RAM         0.0467
     67 H32        -6.7546   14.1335   33.4417 H         1 RAM         0.0525
     68 H33        -5.6765   14.9110   34.6499 H         1 RAM         0.0525
     69 H34        -5.2410   14.9397   32.9075 H         1 RAM         0.0525
     70 H35        -6.6884   18.3199   31.3352 H         1 RAM         0.1857
     71 H36        -3.7537   20.7983   35.9357 H         1 RAM         0.2100
     72 H37        -5.1942   19.2401   37.5488 H         1 RAM         0.2095
@<TRIPOS>BOND
     1    1    2 1  
     2    1    9 1  
     3    2    3 1  
     4    2    4 1  
     5    4    5 1  
     6    4    6 1  
     7    6    7 1  
     8    8    6 1  
     9    9    8 1  
    10    8   10 1  
    11   11   12 1  
    12   11   18 1  
    13   12   13 1  
    14   13   14 1  
    15   13   15 1  
    16   14    1 1  
    17   15   16 1  
    18   17   15 1  
    19   18   17 1  
    20   17   19 1  
    21   21   20 1  
    22   20   30 1  
    23   20   33 1  
    24   22   21 1  
    25   21   29 1  
    26   22   23 1  
    27   31   22 1  
    28   23   24 1  
    29   23   32 1  
    30   24   25 1  
    31   24   33 1  
    32   25   34 1  
    33   26   27 1  
    34   29   26 am 
    35   26   35 2  
    36   31   11 1  
    37   30   28 1  
    38    1   36 1  
    39    2   37 1  
    40    3   38 1  
    41    4   39 1  
    42    5   40 1  
    43    6   41 1  
    44    7   42 1  
    45    8   43 1  
    46   10   44 1  
    47   10   45 1  
    48   10   46 1  
    49   11   47 1  
    50   12   48 1  
    51   12   49 1  
    52   13   50 1  
    53   15   51 1  
    54   16   52 1  
    55   17   53 1  
    56   19   54 1  
    57   19   55 1  
    58   19   56 1  
    59   20   57 1  
    60   21   58 1  
    61   22   59 1  
    62   23   60 1  
    63   24   61 1  
    64   25   62 1  
    65   25   63 1  
    66   27   64 1  
    67   27   65 1  
    68   27   66 1  
    69   28   67 1  
    70   28   68 1  
    71   28   69 1  
    72   29   70 1  
    73   32   71 1  
    74   34   72 1  
@<TRIPOS>SUBSTRUCTURE
     1 RAM         1

