### 
### Created by X-TOOL on Mon Sep 10 21:12:50 2018
### 

@<TRIPOS>MOLECULE
1m7i_ligand
  113   117     1     0     0
SMALL
GAST_HUCK


@<TRIPOS>ATOM
      1 C1        -11.6960   26.4010   35.0970 C.3       1 RAM         0.1884
      2 C2        -12.9110   26.2810   36.0230 C.3       1 RAM         0.1341
      3 O2        -13.5590   27.5360   36.1750 O.3       1 RAM        -0.3841
      4 C3        -12.4680   25.7220   37.3960 C.3       1 RAM         0.1140
      5 O3        -13.5640   25.6660   38.2990 O.3       1 RAM        -0.3864
      6 C4        -11.3090   26.5600   37.9840 C.3       1 RAM         0.1095
      7 O4        -10.8190   25.9690   39.1810 O.3       1 RAM        -0.3866
      8 C5        -10.1640   26.7080   36.9710 C.3       1 RAM         0.0873
      9 O5        -10.6780   27.2300   35.7160 O.3       1 RAM        -0.3431
     10 C6         -9.1070   27.6510   37.5420 C.3       1 RAM        -0.0361
     11 C1         -9.3250   23.7430   34.2760 C.3       1 RAM         0.1887
     12 C2        -10.1510   24.9670   33.8760 C.3       1 RAM         0.1406
     13 O2        -11.2260   25.0750   34.8210 O.3       1 RAM        -0.3378
     14 C3        -10.7410   24.7690   32.4690 C.3       1 RAM         0.1143
     15 O3        -11.5770   25.8610   32.1180 O.3       1 RAM        -0.3864
     16 C4        -11.5290   23.4530   32.3840 C.3       1 RAM         0.1095
     17 O4        -11.9700   23.2290   31.0510 O.3       1 RAM        -0.3866
     18 C5        -10.6780   22.2700   32.8760 C.3       1 RAM         0.0873
     19 O5        -10.1580   22.5590   34.1960 O.3       1 RAM        -0.3431
     20 C6        -11.5180   20.9920   32.9270 C.3       1 RAM        -0.0361
     21 C1         -5.3990   21.0560   33.9300 C.3       1 RAM         0.1883
     22 C2         -6.6270   21.7320   33.3170 C.3       1 RAM         0.1345
     23 O2         -6.3570   22.1440   31.9870 O.3       1 RAM        -0.3841
     24 C3         -7.0500   22.9310   34.1590 C.3       1 RAM         0.1205
     25 O3         -8.1120   23.6510   33.4960 O.3       1 RAM        -0.3400
     26 C4         -5.8660   23.8780   34.4160 C.3       1 RAM         0.1098
     27 O4         -6.2500   24.8850   35.3310 O.3       1 RAM        -0.3866
     28 C5         -4.6560   23.1220   34.9620 C.3       1 RAM         0.0873
     29 O5         -4.3370   22.0220   34.0900 O.3       1 RAM        -0.3431
     30 C6         -3.4630   24.0650   35.0560 C.3       1 RAM        -0.0361
     31 C1         -6.3780   16.6640   34.7130 C.3       1 NAG         0.1855
     32 C2         -6.6850   18.1640   34.6340 C.3       1 NAG         0.1213
     33 C3         -5.4620   18.9640   35.1300 C.3       1 NAG         0.1176
     34 C4         -5.0020   18.4860   36.5190 C.3       1 NAG         0.1120
     35 C5         -4.8150   16.9580   36.5300 C.3       1 NAG         0.1130
     36 C6         -4.4790   16.4250   37.9220 C.3       1 NAG         0.0730
     37 C7         -8.1530   19.1010   32.9470 C.2       1 NAG         0.1733
     38 C8         -8.3820   19.4050   31.4800 C.3       1 NAG         0.0257
     39 N2         -6.9990   18.5080   33.2560 N.am      1 NAG        -0.2766
     40 O3         -5.7400   20.3790   35.1590 O.3       1 NAG        -0.3403
     41 O4         -3.7890   19.1340   36.8700 O.3       1 NAG        -0.3865
     42 O5         -6.0070   16.3100   36.0500 O.3       1 NAG        -0.3408
     43 O6         -4.6180   15.0100   37.9480 O.3       1 NAG        -0.3924
     44 O7         -8.9910   19.4060   33.7920 O.2       1 NAG        -0.3974
     45 C1         -6.2610   13.7550   34.4460 C.3       1 RAO         0.1878
     46 O1         -5.7520   12.6740   33.6410 O.3       1 RAO        -0.3519
     47 C7         -5.1210   11.6370   34.3910 C.3       1 RAO         0.0395
     48 O2         -7.5110   15.9000   34.2660 O.3       1 RAO        -0.3380
     49 C2         -7.1900   14.6560   33.6050 C.3       1 RAO         0.1406
     50 C3         -8.4800   13.9110   33.2550 C.3       1 RAO         0.1143
     51 O3         -9.3910   14.8100   32.6360 O.3       1 RAO        -0.3864
     52 C4         -9.1350   13.3000   34.5090 C.3       1 RAO         0.1095
     53 O4        -10.2390   12.4860   34.1330 O.3       1 RAO        -0.3866
     54 C5         -8.1160   12.4750   35.3260 C.3       1 RAO         0.0873
     55 O5         -6.9520   13.2820   35.6200 O.3       1 RAO        -0.3431
     56 C6         -8.7080   11.9210   36.6200 C.3       1 RAO        -0.0361
     57 H1        -12.0027   26.8740   34.1524 H         1 RAM         0.0938
     58 H2        -13.6251   25.5760   35.5724 H         1 RAM         0.0671
     59 H3        -14.3073   27.4370   36.7518 H         1 RAM         0.2101
     60 H4        -12.1016   24.6962   37.2430 H         1 RAM         0.0648
     61 H5        -13.2683   25.3204   39.1331 H         1 RAM         0.2100
     62 H6        -11.6947   27.5624   38.2217 H         1 RAM         0.0646
     63 H7        -11.5204   25.9227   39.8201 H         1 RAM         0.2100
     64 H8         -9.7097   25.7226   36.7907 H         1 RAM         0.0621
     65 H9         -8.2845   27.7602   36.8198 H         1 RAM         0.0255
     66 H10        -8.7160   27.2368   38.4830 H         1 RAM         0.0255
     67 H11        -9.5591   28.6352   37.7344 H         1 RAM         0.0255
     68 H12        -9.0246   23.8654   35.3271 H         1 RAM         0.0938
     69 H13        -9.5266   25.8724   33.8966 H         1 RAM         0.0675
     70 H14        -9.9097   24.7224   31.7502 H         1 RAM         0.0648
     71 H15       -11.0688   26.6636   32.1285 H         1 RAM         0.2100
     72 H16       -12.4129   23.5361   33.0335 H         1 RAM         0.0646
     73 H17       -11.2172   23.1788   30.4738 H         1 RAM         0.2100
     74 H18        -9.8383   22.1198   32.1816 H         1 RAM         0.0621
     75 H19       -10.8946   20.1574   33.2804 H         1 RAM         0.0255
     76 H20       -11.9001   20.7639   31.9210 H         1 RAM         0.0255
     77 H21       -12.3631   21.1359   33.6163 H         1 RAM         0.0255
     78 H22        -5.0460   20.2907   33.2231 H         1 RAM         0.0938
     79 H23        -7.4532   21.0061   33.2988 H         1 RAM         0.0671
     80 H24        -5.6339   22.7601   31.9881 H         1 RAM         0.2101
     81 H25        -7.4211   22.5637   35.1272 H         1 RAM         0.0651
     82 H26        -5.5831   24.3508   33.4640 H         1 RAM         0.0646
     83 H27        -6.9763   25.3794   34.9697 H         1 RAM         0.2100
     84 H28        -4.8920   22.7342   35.9639 H         1 RAM         0.0621
     85 H29        -2.5934   23.5181   35.4493 H         1 RAM         0.0255
     86 H30        -3.7071   24.8991   35.7303 H         1 RAM         0.0255
     87 H31        -3.2270   24.4586   34.0563 H         1 RAM         0.0255
     88 H32        -5.5294   16.4446   34.0483 H         1 RAM         0.0935
     89 H33        -7.5506   18.3959   35.2719 H         1 RAM         0.0633
     90 H34        -4.6383   18.7928   34.4213 H         1 RAM         0.0649
     91 H35        -5.7725   18.7513   37.2578 H         1 RAM         0.0647
     92 H36        -3.9823   16.7105   35.8552 H         1 RAM         0.0647
     93 H37        -5.1635   16.8717   38.6581 H         1 RAM         0.0584
     94 H38        -3.4427   16.6938   38.1746 H         1 RAM         0.0584
     95 H39        -9.3613   19.8901   31.3546 H         1 RAM         0.0467
     96 H40        -8.3604   18.4683   30.9037 H         1 RAM         0.0467
     97 H41        -7.5907   20.0773   31.1170 H         1 RAM         0.0467
     98 H42        -6.3421   18.2975   32.5320 H         1 RAM         0.1857
     99 H43        -3.9193   20.0749   36.8591 H         1 RAM         0.2100
    100 H44        -5.5131   14.7768   37.7312 H         1 RAM         0.2095
    101 H45        -5.4046   14.3595   34.7795 H         1 RAM         0.0937
    102 H46        -4.7624   10.8550   33.7056 H         1 RAM         0.0525
    103 H47        -5.8444   11.2025   35.0966 H         1 RAM         0.0525
    104 H48        -4.2697   12.0540   34.9489 H         1 RAM         0.0525
    105 H49        -6.6649   14.8973   32.6690 H         1 RAM         0.0675
    106 H50        -8.2398   13.1001   32.5516 H         1 RAM         0.0648
    107 H51        -9.5872   15.5218   33.2338 H         1 RAM         0.2100
    108 H52        -9.5038   14.1201   35.1426 H         1 RAM         0.0646
    109 H53       -10.8789   13.0155   33.6718 H         1 RAM         0.2100
    110 H54        -7.7998   11.6218   34.7079 H         1 RAM         0.0621
    111 H55        -7.9402   11.3451   37.1574 H         1 RAM         0.0255
    112 H56        -9.5589   11.2655   36.3828 H         1 RAM         0.0255
    113 H57        -9.0513   12.7533   37.2520 H         1 RAM         0.0255
@<TRIPOS>BOND
     1    1    2 1  
     2    1    9 1  
     3    2    3 1  
     4    2    4 1  
     5    4    5 1  
     6    4    6 1  
     7    6    7 1  
     8    8    6 1  
     9    9    8 1  
    10    8   10 1  
    11   11   12 1  
    12   11   19 1  
    13   12   13 1  
    14   12   14 1  
    15   13    1 1  
    16   14   15 1  
    17   14   16 1  
    18   16   17 1  
    19   18   16 1  
    20   19   18 1  
    21   18   20 1  
    22   21   22 1  
    23   21   29 1  
    24   22   23 1  
    25   22   24 1  
    26   24   25 1  
    27   24   26 1  
    28   25   11 1  
    29   26   27 1  
    30   28   26 1  
    31   29   28 1  
    32   28   30 1  
    33   31   32 1  
    34   31   42 1  
    35   32   33 1  
    36   32   39 1  
    37   33   34 1  
    38   33   40 1  
    39   35   34 1  
    40   34   41 1  
    41   35   36 1  
    42   42   35 1  
    43   36   43 1  
    44   37   38 1  
    45   39   37 am 
    46   37   44 2  
    47   40   21 1  
    48   45   46 1  
    49   49   45 1  
    50   45   55 1  
    51   46   47 1  
    52   49   50 1  
    53   50   51 1  
    54   50   52 1  
    55   52   53 1  
    56   52   54 1  
    57   55   54 1  
    58   54   56 1  
    59   48   49 1  
    60   48   31 1  
    61    1   57 1  
    62    2   58 1  
    63    3   59 1  
    64    4   60 1  
    65    5   61 1  
    66    6   62 1  
    67    7   63 1  
    68    8   64 1  
    69   10   65 1  
    70   10   66 1  
    71   10   67 1  
    72   11   68 1  
    73   12   69 1  
    74   14   70 1  
    75   15   71 1  
    76   16   72 1  
    77   17   73 1  
    78   18   74 1  
    79   20   75 1  
    80   20   76 1  
    81   20   77 1  
    82   21   78 1  
    83   22   79 1  
    84   23   80 1  
    85   24   81 1  
    86   26   82 1  
    87   27   83 1  
    88   28   84 1  
    89   30   85 1  
    90   30   86 1  
    91   30   87 1  
    92   31   88 1  
    93   32   89 1  
    94   33   90 1  
    95   34   91 1  
    96   35   92 1  
    97   36   93 1  
    98   36   94 1  
    99   38   95 1  
   100   38   96 1  
   101   38   97 1  
   102   39   98 1  
   103   41   99 1  
   104   43  100 1  
   105   45  101 1  
   106   47  102 1  
   107   47  103 1  
   108   47  104 1  
   109   49  105 1  
   110   50  106 1  
   111   51  107 1  
   112   52  108 1  
   113   53  109 1  
   114   54  110 1  
   115   56  111 1  
   116   56  112 1  
   117   56  113 1  
@<TRIPOS>SUBSTRUCTURE
     1 RAM         1

