### 
### Created by X-TOOL on Mon Sep 10 21:12:49 2018
### 

@<TRIPOS>MOLECULE
1m7q_ligand
   52    56     1     0     0
SMALL
GAST_HUCK


@<TRIPOS>ATOM
      1 C1         43.9700   33.1090   31.4590 C.ar      1 DQO         0.0408
      2 C2         43.1590   31.9130   31.3160 C.ar      1 DQO        -0.0167
      3 C3         43.8110   30.6620   31.0680 C.ar      1 DQO        -0.0387
      4 C4         45.2260   30.5790   30.9530 C.ar      1 DQO         0.0400
      5 C5         46.0080   31.7440   31.0740 C.ar      1 DQO        -0.0062
      6 C6         45.4100   33.0490   31.3300 C.ar      1 DQO         0.1111
      7 N9         45.9420   29.5640   30.7570 N.pl3     1 DQO        -0.2957
      8 C10        41.6580   31.9160   31.4240 C.ar      1 DQO         0.0143
      9 N11        46.1960   34.2930   31.4760 N.am      1 DQO        -0.1549
     10 C12        45.5900   35.5440   31.7460 C.2       1 DQO         0.2950
     11 N13        44.2620   35.5890   31.8680 N.2       1 DQO        -0.2421
     12 C14        43.3460   34.4680   31.7410 C.2       1 DQO         0.0211
     13 O18        46.2070   36.5930   31.8800 O.2       1 DQO        -0.3785
     14 C19        47.3830   34.2240   31.3460 C.ar      1 DQO         0.1285
     15 C20        41.0130   31.4150   32.5910 C.ar      1 DQO        -0.0548
     16 C21        39.5880   31.4310   32.7000 C.ar      1 DQO        -0.0293
     17 C22        38.8120   31.9600   31.6220 C.ar      1 DQO         0.1333
     18 C23        39.4250   32.4610   30.4440 C.ar      1 DQO         0.0084
     19 C24        40.8340   32.4370   30.3490 C.ar      1 DQO         0.1423
     20 C28        48.3920   33.8600   32.3530 C.ar      1 DQO         0.0693
     21 C29        49.7750   33.8300   32.0280 C.ar      1 DQO        -0.0575
     22 C30        50.2240   34.1480   30.7010 C.ar      1 DQO        -0.0729
     23 C31        49.2970   34.4980   29.6720 C.ar      1 DQO        -0.0575
     24 C32        47.9020   34.5410   29.9590 C.ar      1 DQO         0.0693
     25 F36        41.3250   32.9390   29.1860 F         1 DQO        -0.1808
     26 F37        37.4810   31.9890   31.7250 F         1 DQO        -0.1824
     27 CL38       46.8400   34.9750   28.5960 Cl        1 DQO        -0.0791
     28 CL39       47.9630   33.4370   33.9810 Cl        1 DQO        -0.0791
     29 C40        46.1520   28.9520   29.4020 C.3       1 DQO         0.0688
     30 C41        45.9120   27.4140   29.5260 C.3       1 DQO        -0.0131
     31 N42        46.6400   26.7970   30.6970 N.4       1 DQO         0.2298
     32 C43        46.3320   27.4280   32.0110 C.3       1 DQO        -0.0131
     33 C44        46.5970   28.9550   31.9860 C.3       1 DQO         0.0688
     34 H1         43.2151   29.7622   30.9661 H         1 DQO         0.0455
     35 H2         47.0847   31.6684   30.9740 H         1 DQO         0.0435
     36 H3         42.2691   34.5939   31.8424 H         1 DQO         0.1081
     37 H4         41.6089   31.0176   33.4046 H         1 DQO         0.0618
     38 H5         39.1015   31.0467   33.5892 H         1 DQO         0.0577
     39 H6         38.8233   32.8545   29.6327 H         1 DQO         0.0596
     40 H7         50.4991   33.5643   32.7897 H         1 DQO         0.0593
     41 H8         51.2842   34.1219   30.4767 H         1 DQO         0.0515
     42 H9         49.6540   34.7303   28.6752 H         1 DQO         0.0593
     43 H10        47.1802   29.1432   29.0611 H         1 DQO         0.0572
     44 H11        45.4408   29.3841   28.6827 H         1 DQO         0.0572
     45 H12        46.2596   26.9291   28.6019 H         1 DQO         0.0834
     46 H13        44.8336   27.2361   29.6502 H         1 DQO         0.0834
     47 H14        47.6309   26.8793   30.5317 H         1 DQO         0.2015
     48 H15        46.3876   25.8224   30.7478 H         1 DQO         0.2015
     49 H16        46.9645   26.9685   32.7848 H         1 DQO         0.0834
     50 H17        45.2730   27.2533   32.2516 H         1 DQO         0.0834
     51 H18        46.1753   29.4149   32.8919 H         1 DQO         0.0572
     52 H19        47.6811   29.1382   31.9523 H         1 DQO         0.0572
@<TRIPOS>BOND
     1    1   12 1  
     2    1    6 ar 
     3    1    2 ar 
     4    2    8 1  
     5    2    3 ar 
     6    3    4 ar 
     7    4    7 1  
     8    4    5 ar 
     9    6    5 ar 
    10    6    9 1  
    11    9   14 1  
    12    9   10 am 
    13   10   13 2  
    14   10   11 1  
    15   12   11 2  
    16   14   24 ar 
    17   14   20 ar 
    18   20   28 1  
    19   20   21 ar 
    20   21   22 ar 
    21   22   23 ar 
    22   24   23 ar 
    23   24   27 1  
    24    7   33 1  
    25    7   29 1  
    26   29   30 1  
    27   30   31 1  
    28   31   32 1  
    29   33   32 1  
    30    8   19 ar 
    31    8   15 ar 
    32   15   16 ar 
    33   16   17 ar 
    34   17   26 1  
    35   17   18 ar 
    36   18   19 ar 
    37   19   25 1  
    38    3   34 1  
    39    5   35 1  
    40   12   36 1  
    41   15   37 1  
    42   16   38 1  
    43   18   39 1  
    44   21   40 1  
    45   22   41 1  
    46   23   42 1  
    47   29   43 1  
    48   29   44 1  
    49   30   45 1  
    50   30   46 1  
    51   31   47 1  
    52   31   48 1  
    53   32   49 1  
    54   32   50 1  
    55   33   51 1  
    56   33   52 1  
@<TRIPOS>SUBSTRUCTURE
     1 DQO         1

