### 
### Created by X-TOOL on Mon Sep 10 21:12:50 2018
### 

@<TRIPOS>MOLECULE
1mcz_ligand
   18    18     1     0     0
SMALL
GAST_HUCK


@<TRIPOS>ATOM
      1 H1         30.2462   19.2477   -6.7417 H         1 RMN         0.0560
      2 H2         30.0292   20.5859   -8.8219 H         1 RMN         0.0600
      3 H3         27.9333   21.8320   -9.3049 H         1 RMN         0.0560
      4 H4         26.0202   21.7627   -7.7104 H         1 RMN         0.0600
      5 H5         26.2235   20.4257   -5.6149 H         1 RMN         0.0560
      6 H6         28.2993   17.8166   -4.9795 H         1 RMN         0.0925
      7 H7         29.7969   18.4623   -3.3436 H         1 RMN         0.2155
      8 C1         28.2540   19.7270   -6.0120 C.ar      1 RMN        -0.0018
      9 C2         29.3280   19.7880   -6.9420 C.ar      1 RMN        -0.0562
     10 C3         29.2050   20.5450   -8.1190 C.ar      1 RMN        -0.0682
     11 C4         28.0140   21.2530   -8.3920 C.ar      1 RMN        -0.0685
     12 C5         26.9320   21.2170   -7.4960 C.ar      1 RMN        -0.0682
     13 C6         27.0530   20.4580   -6.3120 C.ar      1 RMN        -0.0562
     14 C7         28.3950   18.8740   -4.6920 C.3       1 RMN         0.1408
     15 C10        27.3290   19.1640   -3.6630 C.2       1 RMN         0.0757
     16 O8         29.7060   19.0580   -4.0780 O.3       1 RMN        -0.3654
     17 O11        26.2610   18.6740   -3.9100 O.co2     1 RMN        -0.5640
     18 O12        27.5880   19.8240   -2.6890 O.co2     1 RMN        -0.5640
@<TRIPOS>BOND
     1    9    1 1  
     2   10    2 1  
     3   11    3 1  
     4   12    4 1  
     5   13    5 1  
     6   14    6 1  
     7   16    7 1  
     8    8    9 ar 
     9    8   13 ar 
    10   14    8 1  
    11    9   10 ar 
    12   10   11 ar 
    13   12   11 ar 
    14   13   12 ar 
    15   14   15 1  
    16   14   16 1  
    17   15   17 ar 
    18   15   18 ar 
@<TRIPOS>SUBSTRUCTURE
     1 RMN         1

