### 
### Created by X-TOOL on Mon Sep 10 21:12:45 2018
### 

@<TRIPOS>MOLECULE
1mdl_ligand
   18    18     1     0     0
SMALL
GAST_HUCK


@<TRIPOS>ATOM
      1 C1         36.7150    2.1570   17.6590 C.ar      1 RMN        -0.0018
      2 C2         38.0530    1.9740   17.3430 C.ar      1 RMN        -0.0562
      3 C3         38.9540    2.9950   17.5560 C.ar      1 RMN        -0.0682
      4 C4         38.5290    4.2090   18.0750 C.ar      1 RMN        -0.0685
      5 C5         37.2020    4.4080   18.4100 C.ar      1 RMN        -0.0682
      6 C6         36.3020    3.3790   18.2010 C.ar      1 RMN        -0.0562
      7 C7         35.6670    1.0340   17.4160 C.3       1 RMN         0.1408
      8 C10        34.6860    0.9550   18.5790 C.2       1 RMN         0.0757
      9 O8         36.2600   -0.2640   17.0940 O.3       1 RMN        -0.3654
     10 O11        34.0220    1.9480   18.7300 O.co2     1 RMN        -0.5640
     11 O12        34.6420   -0.0320   19.2850 O.co2     1 RMN        -0.5640
     12 H1         38.3893    1.0301   16.9294 H         1 RMN         0.0560
     13 H2         40.0010    2.8484   17.3165 H         1 RMN         0.0600
     14 H3         39.2445    5.0103   18.2196 H         1 RMN         0.0560
     15 H4         36.8736    5.3525   18.8284 H         1 RMN         0.0600
     16 H5         35.2594    3.5215   18.4614 H         1 RMN         0.0560
     17 H6         35.0866    1.3335   16.5309 H         1 RMN         0.0925
     18 H7         36.7295   -0.5931   17.8515 H         1 RMN         0.2155
@<TRIPOS>BOND
     1    1    2 ar 
     2    1    6 ar 
     3    1    7 1  
     4    2    3 ar 
     5    3    4 ar 
     6    4    5 ar 
     7    5    6 ar 
     8    7    8 1  
     9    7    9 1  
    10    8   10 ar 
    11    8   11 ar 
    12    2   12 1  
    13    3   13 1  
    14    4   14 1  
    15    5   15 1  
    16    6   16 1  
    17    7   17 1  
    18    9   18 1  
@<TRIPOS>SUBSTRUCTURE
     1 RMN         1

