### 
### Created by X-TOOL on Mon Sep 10 21:12:48 2018
### 

@<TRIPOS>MOLECULE
1me3_ligand
   64    66     1     0     0
SMALL
GAST_HUCK


@<TRIPOS>ATOM
      1 C12         5.8690   11.5780    9.0670 C.2       1 P10         0.1557
      2 C2          5.1390   10.8090    9.9830 C.3       1 P10         0.1194
      3 O1          5.9130   10.6730   11.1820 O.3       1 P10        -0.3756
      4 O13         7.0960   11.6420    9.1550 O.2       1 P10        -0.3867
      5 C14         5.0260   12.2840    8.0750 C.3       1 P10         0.1190
      6 C15         4.9810   13.7480    8.4310 C.3       1 P10        -0.0037
      7 C16         4.4400   14.4970    7.1890 C.3       1 P10        -0.0149
      8 C17         4.2390   15.9670    7.4800 C.ar      1 P10        -0.0428
      9 C18         5.3310   16.8290    7.2980 C.ar      1 P10        -0.0603
     10 C19         5.2290   18.2100    7.4870 C.ar      1 P10        -0.0686
     11 C20         4.0200   18.7260    7.9970 C.ar      1 P10        -0.0687
     12 C21         2.9040   17.8820    8.1720 C.ar      1 P10        -0.0686
     13 C22         3.0140   16.5040    7.9210 C.ar      1 P10        -0.0603
     14 N23         3.6400   11.7770    7.8780 N.am      1 P10        -0.2645
     15 C24         3.2770   11.0980    6.7410 C.2       1 P10         0.2060
     16 O25         4.0950   10.7790    5.8720 O.2       1 P10        -0.3942
     17 C26         1.8050   10.6980    6.6530 C.3       1 P10         0.1423
     18 C27         1.6220    9.2260    7.0950 C.3       1 P10         0.0214
     19 C28         0.2650    8.6130    6.7630 C.ar      1 P10        -0.0386
     20 C29         0.2480    7.4030    6.0160 C.ar      1 P10        -0.0601
     21 C30        -0.9860    6.8210    5.6330 C.ar      1 P10        -0.0686
     22 C31        -2.1970    7.3880    6.1020 C.ar      1 P10        -0.0687
     23 C32        -2.1640    8.6160    6.8020 C.ar      1 P10        -0.0686
     24 C33        -0.9300    9.1680    7.1890 C.ar      1 P10        -0.0601
     25 N34         1.3330   10.7910    5.2220 N.am      1 P10        -0.2393
     26 C35         1.0350   12.0050    4.6750 C.2       1 P10         0.3242
     27 O36         0.9490   13.0560    5.3210 O.2       1 P10        -0.3773
     28 O37         0.8760   11.8610    3.3340 O.3       1 P10        -0.2491
     29 C38         0.4620   13.0530    2.5900 C.3       1 P10         0.1173
     30 C39         0.6310   12.7150    1.1320 C.ar      1 P10         0.0151
     31 C40        -0.3280   12.0020    0.4000 C.ar      1 P10        -0.0379
     32 C41        -0.0570   11.6730   -0.9370 C.ar      1 P10        -0.0404
     33 C42         1.0920   12.1750   -1.5610 C.ar      1 P10         0.0042
     34 N43         2.0020   12.8780   -0.8250 N.ar      1 P10        -0.3043
     35 C44         1.7980   13.1490    0.4950 C.ar      1 P10         0.0151
     36 H1          4.9383    9.8152    9.5563 H         1 P10         0.0793
     37 H2          4.1863   11.3092   10.2112 H         1 P10         0.0793
     38 H3          5.4290   10.1529   11.8127 H         1 P10         0.2130
     39 H4          5.5341   12.1842    7.1045 H         1 P10         0.0794
     40 H5          5.9902   14.1079    8.6797 H         1 P10         0.0335
     41 H6          4.3126   13.9080    9.2899 H         1 P10         0.0335
     42 H7          3.4767   14.0547    6.8950 H         1 P10         0.0428
     43 H8          5.1597   14.3900    6.3640 H         1 P10         0.0428
     44 H9          6.2855   16.4099    7.0009 H         1 P10         0.0557
     45 H10         6.0574   18.8670    7.2478 H         1 P10         0.0599
     46 H11         3.9481   19.7762    8.2557 H         1 P10         0.0559
     47 H12         1.9585   18.2976    8.5011 H         1 P10         0.0599
     48 H13         2.1577   15.8554    8.0665 H         1 P10         0.0557
     49 H14         2.9569   11.9348    8.5910 H         1 P10         0.1884
     50 H15         1.2054   11.3616    7.2934 H         1 P10         0.0823
     51 H16         1.7595    9.1783    8.1853 H         1 P10         0.0474
     52 H17         2.3980    8.6231    6.6007 H         1 P10         0.0474
     53 H18         1.1807    6.9250    5.7391 H         1 P10         0.0557
     54 H19        -1.0034    5.9504    4.9874 H         1 P10         0.0599
     55 H20        -3.1407    6.8845    5.9256 H         1 P10         0.0559
     56 H21        -3.0879    9.1308    7.0398 H         1 P10         0.0599
     57 H22        -0.9139   10.0415    7.8307 H         1 P10         0.0557
     58 H23         1.2385    9.9603    4.6733 H         1 P10         0.1901
     59 H24         1.0963   13.9104    2.8591 H         1 P10         0.0792
     60 H25        -0.5895   13.2924    2.8069 H         1 P10         0.0792
     61 H26        -1.2650   11.7090    0.8596 H         1 P10         0.0679
     62 H27        -0.7362   11.0310   -1.4862 H         1 P10         0.0693
     63 H28         1.2573   12.0068   -2.6190 H         1 P10         0.0767
     64 H29         2.5435   13.7033    1.0536 H         1 P10         0.0766
@<TRIPOS>BOND
     1    1    2 1  
     2    1    4 2  
     3    1    5 1  
     4    2    3 1  
     5    5    6 1  
     6    5   14 1  
     7    6    7 1  
     8    7    8 1  
     9    8    9 ar 
    10    8   13 ar 
    11    9   10 ar 
    12   10   11 ar 
    13   11   12 ar 
    14   12   13 ar 
    15   14   15 am 
    16   15   16 2  
    17   15   17 1  
    18   17   18 1  
    19   17   25 1  
    20   18   19 1  
    21   19   20 ar 
    22   19   24 ar 
    23   20   21 ar 
    24   21   22 ar 
    25   22   23 ar 
    26   23   24 ar 
    27   25   26 am 
    28   26   27 2  
    29   26   28 1  
    30   28   29 1  
    31   29   30 1  
    32   30   31 ar 
    33   30   35 ar 
    34   31   32 ar 
    35   32   33 ar 
    36   33   34 ar 
    37   34   35 ar 
    38    2   36 1  
    39    2   37 1  
    40    3   38 1  
    41    5   39 1  
    42    6   40 1  
    43    6   41 1  
    44    7   42 1  
    45    7   43 1  
    46    9   44 1  
    47   10   45 1  
    48   11   46 1  
    49   12   47 1  
    50   13   48 1  
    51   14   49 1  
    52   17   50 1  
    53   18   51 1  
    54   18   52 1  
    55   20   53 1  
    56   21   54 1  
    57   22   55 1  
    58   23   56 1  
    59   24   57 1  
    60   25   58 1  
    61   29   59 1  
    62   29   60 1  
    63   31   61 1  
    64   32   62 1  
    65   33   63 1  
    66   35   64 1  
@<TRIPOS>SUBSTRUCTURE
     1 P10         1

