### 
### Created by X-TOOL on Mon Sep 10 21:12:48 2018
### 

@<TRIPOS>MOLECULE
1me4_ligand
   62    64     1     0     0
SMALL
GAST_HUCK


@<TRIPOS>ATOM
      1 O1          6.2180   10.7430   11.0070 O.3       1 T10        -0.3756
      2 C6          5.2660   10.8090    9.9630 C.3       1 T10         0.1196
      3 C7          5.9290   11.7990    9.0240 C.2       1 T10         0.1576
      4 O8          7.1490   11.7390    9.0160 O.2       1 T10        -0.3865
      5 C9          4.9310   12.6470    8.2430 C.3       1 T10         0.1267
      6 C10         4.7030   13.9080    9.1390 C.3       1 T10         0.0204
      7 C11         5.9350   14.7530    9.3880 C.ar      1 T10        -0.0385
      8 C12         6.1940   15.8320    8.4980 C.ar      1 T10        -0.0601
      9 C13         7.3530   16.6340    8.6840 C.ar      1 T10        -0.0686
     10 C14         8.2630   16.3900    9.7250 C.ar      1 T10        -0.0687
     11 C15         8.0210   15.3450   10.6430 C.ar      1 T10        -0.0686
     12 C16         6.8570   14.6260   10.4470 C.ar      1 T10        -0.0601
     13 N17         3.6120   11.9500    7.9980 N.am      1 T10        -0.2628
     14 C18         3.3120   11.3160    6.8300 C.2       1 T10         0.2061
     15 O19         4.1430   11.1200    5.9290 O.2       1 T10        -0.3942
     16 C20         1.8580   10.8110    6.7350 C.3       1 T10         0.1423
     17 C21         1.8350    9.3150    7.1400 C.3       1 T10         0.0214
     18 C22         0.4980    8.6390    6.7730 C.ar      1 T10        -0.0386
     19 C23         0.5390    7.4400    6.0140 C.ar      1 T10        -0.0601
     20 C24        -0.6940    6.8210    5.7300 C.ar      1 T10        -0.0686
     21 C25        -1.9280    7.3940    6.0990 C.ar      1 T10        -0.0687
     22 C26        -1.9300    8.6020    6.8210 C.ar      1 T10        -0.0686
     23 C27        -0.7240    9.1970    7.1680 C.ar      1 T10        -0.0601
     24 N28         1.4300   10.9870    5.3320 N.am      1 T10        -0.2393
     25 C29         1.1350   12.1540    4.7370 C.2       1 T10         0.3240
     26 O30         1.0010   13.1830    5.3830 O.2       1 T10        -0.3773
     27 O31         0.9750   12.0350    3.3880 O.3       1 T10        -0.2505
     28 C32         0.6340   13.2840    2.6650 C.3       1 T10         0.1113
     29 C33         0.7730   12.9490    1.2090 C.ar      1 T10        -0.0130
     30 C34        -0.2840   12.3260    0.5080 C.ar      1 T10        -0.0578
     31 C35        -0.1130   12.0140   -0.8360 C.ar      1 T10        -0.0685
     32 C36         1.0880   12.2980   -1.5060 C.ar      1 T10        -0.0687
     33 C37         2.1040   12.9640   -0.8270 C.ar      1 T10        -0.0685
     34 C38         1.9750   13.2340    0.5610 C.ar      1 T10        -0.0578
     35 H1          5.9125   10.1405   11.6750 H         1 T10         0.2130
     36 H2          4.2965   11.1827   10.3241 H         1 T10         0.0793
     37 H3          5.1255    9.8295    9.4827 H         1 T10         0.0793
     38 H4          5.3647   12.9348    7.2740 H         1 T10         0.0815
     39 H5          4.3204   13.5689   10.1129 H         1 T10         0.0474
     40 H6          3.9490   14.5417    8.6493 H         1 T10         0.0474
     41 H7          5.5114   16.0416    7.6824 H         1 T10         0.0557
     42 H8          7.5393   17.4567    8.0032 H         1 T10         0.0599
     43 H9          9.1510   17.0037    9.8238 H         1 T10         0.0559
     44 H10         8.7063   15.1203   11.4522 H         1 T10         0.0599
     45 H11         6.6259   13.8765   11.1953 H         1 T10         0.0557
     46 H12         2.9278   11.9545    8.7273 H         1 T10         0.1886
     47 H13         1.2031   11.3883    7.4042 H         1 T10         0.0823
     48 H14         1.9851    9.2387    8.2270 H         1 T10         0.0474
     49 H15         2.6516    8.7933    6.6195 H         1 T10         0.0474
     50 H16         1.4767    7.0199    5.6686 H         1 T10         0.0557
     51 H17        -0.6940    5.8703    5.2092 H         1 T10         0.0599
     52 H18        -2.8609    6.9116    5.8308 H         1 T10         0.0559
     53 H19        -2.8679    9.0656    7.1048 H         1 T10         0.0599
     54 H20        -0.7288   10.1087    7.7545 H         1 T10         0.0557
     55 H21         1.3529   10.1608    4.7740 H         1 T10         0.1901
     56 H22         1.3275   14.0915    2.9425 H         1 T10         0.0776
     57 H23        -0.3972   13.5918    2.8928 H         1 T10         0.0776
     58 H24        -1.2157   12.0945    1.0114 H         1 T10         0.0557
     59 H25        -0.9240   11.5415   -1.3782 H         1 T10         0.0599
     60 H26         1.2222   12.0019   -2.5401 H         1 T10         0.0559
     61 H27         2.9953   13.2771   -1.3586 H         1 T10         0.0599
     62 H28         2.8052   13.6589    1.1135 H         1 T10         0.0557
@<TRIPOS>BOND
     1    1    2 1  
     2    2    3 1  
     3    3    4 2  
     4    3    5 1  
     5    5    6 1  
     6    5   13 1  
     7    6    7 1  
     8    7    8 ar 
     9    7   12 ar 
    10    8    9 ar 
    11    9   10 ar 
    12   10   11 ar 
    13   11   12 ar 
    14   13   14 am 
    15   14   15 2  
    16   14   16 1  
    17   16   17 1  
    18   16   24 1  
    19   17   18 1  
    20   18   19 ar 
    21   18   23 ar 
    22   19   20 ar 
    23   20   21 ar 
    24   21   22 ar 
    25   22   23 ar 
    26   24   25 am 
    27   25   26 2  
    28   25   27 1  
    29   27   28 1  
    30   28   29 1  
    31   29   30 ar 
    32   29   34 ar 
    33   30   31 ar 
    34   31   32 ar 
    35   32   33 ar 
    36   33   34 ar 
    37    1   35 1  
    38    2   36 1  
    39    2   37 1  
    40    5   38 1  
    41    6   39 1  
    42    6   40 1  
    43    8   41 1  
    44    9   42 1  
    45   10   43 1  
    46   11   44 1  
    47   12   45 1  
    48   13   46 1  
    49   16   47 1  
    50   17   48 1  
    51   17   49 1  
    52   19   50 1  
    53   20   51 1  
    54   21   52 1  
    55   22   53 1  
    56   23   54 1  
    57   24   55 1  
    58   28   56 1  
    59   28   57 1  
    60   30   58 1  
    61   31   59 1  
    62   32   60 1  
    63   33   61 1  
    64   34   62 1  
@<TRIPOS>SUBSTRUCTURE
     1 T10         1

