### 
### Created by X-TOOL on Mon Sep 10 21:12:46 2018
### 

@<TRIPOS>MOLECULE
1mem_ligand
   78    80     1     0     0
SMALL
GAST_HUCK


@<TRIPOS>ATOM
      1 N1         23.6840    1.6270    5.3330 N.am      1 0D6        -0.2492
      2 C1         22.4670    2.1540    5.1760 C.2       1 0D6         0.2625
      3 O1         22.3150    3.0940    4.3950 O.2       1 0D6        -0.4005
      4 C2         24.8890    2.1860    4.6360 C.3       1 0D6         0.0743
      5 C3         26.1040    2.1900    5.4880 C.3       1 0D6        -0.0130
      6 N4         26.3450    0.8490    6.0180 N.4       1 0D6         0.2298
      7 C5         25.2370    0.3570    6.8330 C.3       1 0D6        -0.0130
      8 C6         23.9420    0.3540    6.0600 C.3       1 0D6         0.0743
      9 N          21.4080    1.5970    5.7630 N.am      1 0D6        -0.2517
     10 CA         20.0850    2.1820    5.5900 C.3       1 0D6         0.1314
     11 C          20.1040    3.5740    6.1630 C.2       1 0D6         0.2017
     12 O          20.6030    3.7770    7.2670 O.2       1 0D6        -0.3946
     13 CB         19.0200    1.3660    6.3080 C.3       1 0D6        -0.0103
     14 CG         18.3400    0.1740    5.6370 C.3       1 0D6        -0.0425
     15 CD1        18.8800   -0.1710    4.2600 C.3       1 0D6        -0.0625
     16 CD2        18.4170   -0.9850    6.5850 C.3       1 0D6        -0.0625
     17 H1         24.6700    3.2207    4.3336 H         1 0D6         0.0572
     18 C1         17.4370    6.5670    4.6120 C.3       1 0D6         0.0730
     19 C2         18.1650    6.4090    5.9740 C.3       1 0D6        -0.0099
     20 C3         19.6200    5.9220    5.8090 C.3       1 0D6         0.0453
     21 N          19.6760    4.5440    5.3680 N.am      1 0D6        -0.2818
     22 C4         20.4600    6.8050    4.8830 C.3       1 0D6        -0.0201
     23 C5         21.9480    6.4830    4.9610 C.3       1 0D6        -0.0171
     24 C1'        22.7650    7.2850    3.9790 C.ar      1 0D6        -0.0429
     25 C2'        23.2480    6.6840    2.8010 C.ar      1 0D6        -0.0603
     26 C3'        23.9220    7.4640    1.8470 C.ar      1 0D6        -0.0686
     27 C4'        24.1170    8.8370    2.0710 C.ar      1 0D6        -0.0687
     28 C5'        23.6500    9.4360    3.2370 C.ar      1 0D6        -0.0686
     29 C6'        22.9810    8.6660    4.1890 C.ar      1 0D6        -0.0603
     30 H2         25.0902    1.5774    3.7421 H         1 0D6         0.0572
     31 C1         15.8660    8.7930   -0.0300 C.ar      1 0D6        -0.0616
     32 C2         16.2720    9.9140    0.6950 C.ar      1 0D6        -0.0600
     33 C3         16.7900    9.7750    1.9940 C.ar      1 0D6        -0.0369
     34 C4         16.9310    8.5020    2.5930 C.ar      1 0D6         0.0882
     35 S1         17.0930    8.3390    4.3490 S.o2      1 0D6        -0.0030
     36 O1         15.8070    8.9740    4.9660 O.2       1 0D6        -0.1694
     37 O2         18.3230    9.2170    4.6770 O.2       1 0D6        -0.1694
     38 C5         16.5100    7.3790    1.8190 C.ar      1 0D6        -0.0369
     39 C6         15.9830    7.5300    0.5270 C.ar      1 0D6        -0.0600
     40 H3         25.9616    2.8919    6.3229 H         1 0D6         0.0833
     41 H4         26.9697    2.5056    4.8872 H         1 0D6         0.0833
     42 H5         27.1776    0.8715    6.5857 H         1 0D6         0.2015
     43 H6         26.4823    0.2167    5.2451 H         1 0D6         0.2015
     44 H7         25.1258    1.0057    7.7144 H         1 0D6         0.0833
     45 H8         25.4611   -0.6694    7.1591 H         1 0D6         0.0833
     46 H9         23.9756   -0.4655    5.3270 H         1 0D6         0.0572
     47 H10        23.1156    0.1816    6.7652 H         1 0D6         0.0572
     48 H11        21.5217    0.7763    6.3230 H         1 0D6         0.1877
     49 H12        19.8444    2.2248    4.5175 H         1 0D6         0.0797
     50 H13        18.2183    2.0698    6.5763 H         1 0D6         0.0315
     51 H14        19.4905    0.9795    7.2241 H         1 0D6         0.0315
     52 H15        17.2792    0.4318    5.5023 H         1 0D6         0.0298
     53 H16        18.3331   -1.0366    3.8580 H         1 0D6         0.0232
     54 H17        19.9495   -0.4164    4.3364 H         1 0D6         0.0232
     55 H18        18.7484    0.6900    3.5882 H         1 0D6         0.0232
     56 H19        18.0155   -0.6850    7.5642 H         1 0D6         0.0232
     57 H20        19.4658   -1.2967    6.6987 H         1 0D6         0.0232
     58 H21        17.8262   -1.8235    6.1877 H         1 0D6         0.0232
     59 H22        16.4927    6.0031    4.6273 H         1 0D6         0.0505
     60 H23        18.0773    6.1882    3.8018 H         1 0D6         0.0505
     61 H24        17.6152    5.6789    6.5861 H         1 0D6         0.0303
     62 H25        18.1741    7.3830    6.4850 H         1 0D6         0.0303
     63 H26        20.0838    5.9676    6.8054 H         1 0D6         0.0558
     64 H27        19.3839    4.3182    4.4386 H         1 0D6         0.1855
     65 H28        20.3113    7.8570    5.1681 H         1 0D6         0.0309
     66 H29        20.1202    6.6541    3.8477 H         1 0D6         0.0309
     67 H30        22.0892    5.4134    4.7466 H         1 0D6         0.0427
     68 H31        22.3037    6.7031    5.9784 H         1 0D6         0.0427
     69 H32        23.1003    5.6236    2.6310 H         1 0D6         0.0557
     70 H33        24.2921    7.0060    0.9369 H         1 0D6         0.0599
     71 H34        24.6353    9.4345    1.3298 H         1 0D6         0.0559
     72 H35        23.8052   10.4956    3.4048 H         1 0D6         0.0599
     73 H36        22.6229    9.1321    5.0998 H         1 0D6         0.0557
     74 H37        15.4595    8.9103   -1.0280 H         1 0D6         0.0618
     75 H38        16.1872   10.9000    0.2527 H         1 0D6         0.0618
     76 H39        17.0867   10.6592    2.5464 H         1 0D6         0.0636
     77 H40        16.5996    6.3841    2.2399 H         1 0D6         0.0636
     78 H41        15.6675    6.6584   -0.0350 H         1 0D6         0.0618
@<TRIPOS>BOND
     1    2    1 am 
     2    1    4 1  
     3    1    8 1  
     4    2    3 2  
     5    9    2 am 
     6    4    5 1  
     7    5    6 1  
     8    7    6 1  
     9    8    7 1  
    10   10    9 1  
    11    4   17 1  
    12   11   10 1  
    13   10   13 1  
    14   11   12 2  
    15   21   11 am 
    16   13   14 1  
    17   14   15 1  
    18   14   16 1  
    19   18   19 1  
    20   35   18 1  
    21   19   20 1  
    22   20   21 1  
    23   20   22 1  
    24    4   30 1  
    25   22   23 1  
    26   23   24 1  
    27   24   25 ar 
    28   24   29 ar 
    29   25   26 ar 
    30   26   27 ar 
    31   28   27 ar 
    32   29   28 ar 
    33   32   31 ar 
    34   31   39 ar 
    35   33   32 ar 
    36   34   33 ar 
    37   34   35 1  
    38   34   38 ar 
    39   35   36 2  
    40   35   37 2  
    41   38   39 ar 
    42    5   40 1  
    43    5   41 1  
    44    6   42 1  
    45    6   43 1  
    46    7   44 1  
    47    7   45 1  
    48    8   46 1  
    49    8   47 1  
    50    9   48 1  
    51   10   49 1  
    52   13   50 1  
    53   13   51 1  
    54   14   52 1  
    55   15   53 1  
    56   15   54 1  
    57   15   55 1  
    58   16   56 1  
    59   16   57 1  
    60   16   58 1  
    61   18   59 1  
    62   18   60 1  
    63   19   61 1  
    64   19   62 1  
    65   20   63 1  
    66   21   64 1  
    67   22   65 1  
    68   22   66 1  
    69   23   67 1  
    70   23   68 1  
    71   25   69 1  
    72   26   70 1  
    73   27   71 1  
    74   28   72 1  
    75   29   73 1  
    76   31   74 1  
    77   32   75 1  
    78   33   76 1  
    79   38   77 1  
    80   39   78 1  
@<TRIPOS>SUBSTRUCTURE
     1 0D6         1

