### 
### Created by X-TOOL on Mon Sep 10 21:12:46 2018
### 

@<TRIPOS>MOLECULE
1mes_ligand
   80    84     1     0     0
SMALL
GAST_HUCK


@<TRIPOS>ATOM
      1 C1         -8.8690   15.3780   27.9640 C.2       1 DMP         0.2669
      2 C3         -8.8150   17.6720   26.9600 C.3       1 DMP         0.0852
      3 C4        -10.1990   18.2480   27.1790 C.3       1 DMP         0.1081
      4 C5        -10.6690   18.0060   28.5980 C.3       1 DMP         0.1081
      5 C6        -10.9090   16.5410   28.8850 C.3       1 DMP         0.0852
      6 C20        -8.0110   15.6060   25.7700 C.3       1 DMP         0.0654
      7 C21        -8.4740   16.0510   24.4250 C.ar      1 DMP        -0.0277
      8 C22        -9.8360   16.2820   24.1300 C.ar      1 DMP        -0.0648
      9 C23       -10.2050   16.6360   22.8130 C.ar      1 DMP        -0.0646
     10 C24        -9.2050   16.7570   21.8170 C.ar      1 DMP        -0.0245
     11 C25        -7.8480   16.5230   22.1380 C.ar      1 DMP        -0.0646
     12 C26        -7.4760   16.1780   23.4460 C.ar      1 DMP        -0.0648
     13 C27        -9.5860   17.1040   20.3970 C.3       1 DMP         0.0751
     14 C30        -7.7040   18.2790   27.8410 C.3       1 DMP         0.0067
     15 C31        -6.3320   18.1200   27.2130 C.ar      1 DMP        -0.0408
     16 C32        -5.3460   17.3470   27.8630 C.ar      1 DMP        -0.0603
     17 C33        -4.0940   17.1680   27.2500 C.ar      1 DMP        -0.0686
     18 C34        -3.8330   17.7550   25.9940 C.ar      1 DMP        -0.0687
     19 C35        -4.8120   18.5290   25.3420 C.ar      1 DMP        -0.0686
     20 C36        -6.0630   18.7170   25.9540 C.ar      1 DMP        -0.0603
     21 C60       -12.0110   15.8760   28.0250 C.3       1 DMP         0.0067
     22 C61       -12.5700   14.6220   28.6600 C.ar      1 DMP        -0.0408
     23 C62       -12.2080   13.3540   28.1470 C.ar      1 DMP        -0.0603
     24 C63       -12.6840   12.1840   28.7780 C.ar      1 DMP        -0.0686
     25 C64       -13.5110   12.2900   29.9170 C.ar      1 DMP        -0.0687
     26 C65       -13.8760   13.5600   30.4250 C.ar      1 DMP        -0.0686
     27 C66       -13.4090   14.7330   29.7980 C.ar      1 DMP        -0.0603
     28 C70        -9.6290   14.7530   30.1140 C.3       1 DMP         0.0654
     29 C71        -9.7200   15.3630   31.4700 C.ar      1 DMP        -0.0277
     30 C72       -10.3660   14.5760   32.4350 C.ar      1 DMP        -0.0648
     31 C73       -10.4170   15.0250   33.7550 C.ar      1 DMP        -0.0646
     32 C74        -9.8390   16.2670   34.1110 C.ar      1 DMP        -0.0245
     33 C75        -9.1970   17.0610   33.1310 C.ar      1 DMP        -0.0646
     34 C76        -9.1430   16.6120   31.7980 C.ar      1 DMP        -0.0648
     35 C77        -9.8900   16.7290   35.5450 C.3       1 DMP         0.0751
     36 N2         -8.6580   16.2070   26.9250 N.am      1 DMP        -0.2414
     37 N7         -9.7360   15.6380   28.9630 N.am      1 DMP        -0.2414
     38 O1         -8.2480   14.3240   27.9980 O.2       1 DMP        -0.4002
     39 O4        -10.0730   19.6260   26.9030 O.3       1 DMP        -0.3867
     40 O5        -11.8890   18.6590   28.8310 O.3       1 DMP        -0.3867
     41 O27        -8.7340   18.1270   19.8620 O.3       1 DMP        -0.3836
     42 O77       -11.1950   16.5170   36.1030 O.3       1 DMP        -0.3836
     43 H1         -8.5713   17.9938   25.9368 H         1 DMP         0.0606
     44 H2        -10.9157   17.7879   26.4829 H         1 DMP         0.0645
     45 H3         -9.9046   18.3912   29.2889 H         1 DMP         0.0645
     46 H4        -11.3139   16.5487   29.9077 H         1 DMP         0.0606
     47 H5         -8.1668   14.5188   25.8312 H         1 DMP         0.0670
     48 H6         -6.9357   15.8269   25.8402 H         1 DMP         0.0670
     49 H7        -10.5887   16.1888   24.9045 H         1 DMP         0.0540
     50 H8        -11.2455   16.8137   22.5665 H         1 DMP         0.0540
     51 H9         -7.0899   16.6108   21.3682 H         1 DMP         0.0540
     52 H10        -6.4345   16.0121   23.6967 H         1 DMP         0.0540
     53 H11       -10.6264   17.4609   20.3825 H         1 DMP         0.0708
     54 H12        -9.4987   16.2027   19.7725 H         1 DMP         0.0708
     55 H13        -7.7086   17.7729   28.8177 H         1 DMP         0.0449
     56 H14        -7.9081   19.3506   27.9823 H         1 DMP         0.0449
     57 H15        -5.5526   16.8954   28.8265 H         1 DMP         0.0557
     58 H16        -3.3288   16.5788   27.7424 H         1 DMP         0.0599
     59 H17        -2.8668   17.6084   25.5250 H         1 DMP         0.0559
     60 H18        -4.6026   18.9758   24.3768 H         1 DMP         0.0599
     61 H19        -6.8216   19.3173   25.4649 H         1 DMP         0.0557
     62 H20       -11.5833   15.6140   27.0460 H         1 DMP         0.0449
     63 H21       -12.8312   16.5957   27.8861 H         1 DMP         0.0449
     64 H22       -11.5689   13.2812   27.2745 H         1 DMP         0.0557
     65 H23       -12.4154   11.2084   28.3893 H         1 DMP         0.0599
     66 H24       -13.8695   11.3918   30.4066 H         1 DMP         0.0559
     67 H25       -14.5155   13.6305   31.2974 H         1 DMP         0.0599
     68 H26       -13.6878   15.7080   30.1810 H         1 DMP         0.0557
     69 H27        -8.6558   14.2446   30.0476 H         1 DMP         0.0670
     70 H28       -10.4368   14.0107   30.0333 H         1 DMP         0.0670
     71 H29       -10.8197   13.6311   32.1587 H         1 DMP         0.0540
     72 H30       -10.9019   14.4194   34.5120 H         1 DMP         0.0540
     73 H31        -8.7495   18.0094   33.4053 H         1 DMP         0.0540
     74 H32        -8.6660   17.2149   31.0337 H         1 DMP         0.0540
     75 H33        -9.6499   17.8016   35.5870 H         1 DMP         0.0708
     76 H34        -9.1508   16.1645   36.1322 H         1 DMP         0.0708
     77 H35       -10.9146   20.0501   27.0230 H         1 DMP         0.2100
     78 H36       -11.7775   19.5930   28.6978 H         1 DMP         0.2100
     79 H37        -8.9976   18.3229   18.9706 H         1 DMP         0.2124
     80 H38       -11.2046   16.8145   37.0051 H         1 DMP         0.2124
@<TRIPOS>BOND
     1    1   38 2  
     2    1   37 am 
     3    1   36 am 
     4   36    6 1  
     5   36    2 1  
     6    2   14 1  
     7    2    3 1  
     8    3   39 1  
     9    3    4 1  
    10    4   40 1  
    11    4    5 1  
    12    5   37 1  
    13    5   21 1  
    14   21   22 1  
    15   22   27 ar 
    16   22   23 ar 
    17   23   24 ar 
    18   24   25 ar 
    19   25   26 ar 
    20   26   27 ar 
    21   37   28 1  
    22   28   29 1  
    23   29   34 ar 
    24   29   30 ar 
    25   30   31 ar 
    26   31   32 ar 
    27   32   35 1  
    28   32   33 ar 
    29   33   34 ar 
    30   35   42 1  
    31   14   15 1  
    32   15   20 ar 
    33   15   16 ar 
    34   16   17 ar 
    35   17   18 ar 
    36   18   19 ar 
    37   19   20 ar 
    38    6    7 1  
    39    7   12 ar 
    40    7    8 ar 
    41    8    9 ar 
    42    9   10 ar 
    43   10   13 1  
    44   10   11 ar 
    45   11   12 ar 
    46   13   41 1  
    47    2   43 1  
    48    3   44 1  
    49    4   45 1  
    50    5   46 1  
    51    6   47 1  
    52    6   48 1  
    53    8   49 1  
    54    9   50 1  
    55   11   51 1  
    56   12   52 1  
    57   13   53 1  
    58   13   54 1  
    59   14   55 1  
    60   14   56 1  
    61   16   57 1  
    62   17   58 1  
    63   18   59 1  
    64   19   60 1  
    65   20   61 1  
    66   21   62 1  
    67   21   63 1  
    68   23   64 1  
    69   24   65 1  
    70   25   66 1  
    71   26   67 1  
    72   27   68 1  
    73   28   69 1  
    74   28   70 1  
    75   30   71 1  
    76   31   72 1  
    77   33   73 1  
    78   34   74 1  
    79   35   75 1  
    80   35   76 1  
    81   39   77 1  
    82   40   78 1  
    83   41   79 1  
    84   42   80 1  
@<TRIPOS>SUBSTRUCTURE
     1 DMP         1

