### 
### Created by X-TOOL on Mon Sep 10 21:12:46 2018
### 

@<TRIPOS>MOLECULE
1met_ligand
   80    84     1     0     0
SMALL
GAST_HUCK


@<TRIPOS>ATOM
      1 C1         -8.7770   15.3010   27.8890 C.2       1 DMP         0.2669
      2 C3         -8.7100   17.6000   26.9240 C.3       1 DMP         0.0852
      3 C4        -10.0870   18.1860   27.1820 C.3       1 DMP         0.1081
      4 C5        -10.4930   17.9640   28.6200 C.3       1 DMP         0.1081
      5 C6        -10.7880   16.4950   28.8410 C.3       1 DMP         0.0852
      6 C20        -8.0250   15.5160   25.6460 C.3       1 DMP         0.0654
      7 C21        -8.5450   15.9430   24.3020 C.ar      1 DMP        -0.0277
      8 C22        -9.9210   15.9490   23.9570 C.ar      1 DMP        -0.0648
      9 C23       -10.3040   16.2940   22.6350 C.ar      1 DMP        -0.0646
     10 C24        -9.3040   16.6360   21.6830 C.ar      1 DMP        -0.0245
     11 C25        -7.9440   16.6210   22.0570 C.ar      1 DMP        -0.0646
     12 C26        -7.5640   16.2850   23.3600 C.ar      1 DMP        -0.0648
     13 C27        -9.6800   17.0140   20.2630 C.3       1 DMP         0.0751
     14 C30        -7.5900   18.1460   27.8350 C.3       1 DMP         0.0067
     15 C31        -6.2190   17.9960   27.2150 C.ar      1 DMP        -0.0408
     16 C32        -5.3030   17.0730   27.7590 C.ar      1 DMP        -0.0603
     17 C33        -4.0530   16.8940   27.1410 C.ar      1 DMP        -0.0686
     18 C34        -3.7290   17.6330   25.9840 C.ar      1 DMP        -0.0687
     19 C35        -4.6440   18.5670   25.4400 C.ar      1 DMP        -0.0686
     20 C36        -5.8920   18.7560   26.0610 C.ar      1 DMP        -0.0603
     21 C60       -11.9060   15.9210   27.9330 C.3       1 DMP         0.0067
     22 C61       -12.3890   14.6450   28.5370 C.ar      1 DMP        -0.0408
     23 C62       -12.9630   14.6720   29.8380 C.ar      1 DMP        -0.0603
     24 C63       -13.2290   13.4580   30.5050 C.ar      1 DMP        -0.0686
     25 C64       -12.9400   12.2340   29.8530 C.ar      1 DMP        -0.0687
     26 C65       -12.3970   12.2170   28.5470 C.ar      1 DMP        -0.0686
     27 C66       -12.1190   13.4290   27.8840 C.ar      1 DMP        -0.0603
     28 C70        -9.4760   14.6790   30.0410 C.3       1 DMP         0.0654
     29 C71        -9.5560   15.3150   31.3880 C.ar      1 DMP        -0.0277
     30 C72       -10.3360   14.6180   32.3230 C.ar      1 DMP        -0.0648
     31 C73       -10.4310   15.1130   33.6230 C.ar      1 DMP        -0.0646
     32 C74        -9.7550   16.3000   33.9910 C.ar      1 DMP        -0.0245
     33 C75        -8.9690   17.0130   33.0410 C.ar      1 DMP        -0.0646
     34 C76        -8.8710   16.5100   31.7250 C.ar      1 DMP        -0.0648
     35 C77        -9.8550   16.7910   35.4140 C.3       1 DMP         0.0751
     36 N2         -8.5940   16.1300   26.8430 N.am      1 DMP        -0.2414
     37 N7         -9.6380   15.5530   28.8930 N.am      1 DMP        -0.2414
     38 O1         -8.1270   14.2670   27.9320 O.2       1 DMP        -0.4002
     39 O4         -9.9770   19.5490   26.8670 O.3       1 DMP        -0.3867
     40 O5        -11.6980   18.5880   28.9110 O.3       1 DMP        -0.3867
     41 O27        -8.8040   18.0230   19.7360 O.3       1 DMP        -0.3836
     42 O77       -11.1570   16.5280   35.9670 O.3       1 DMP        -0.3836
     43 H1         -8.4617   17.9565   25.9134 H         1 DMP         0.0606
     44 H2        -10.8307   17.7105   26.5257 H         1 DMP         0.0645
     45 H3         -9.6958   18.3174   29.2905 H         1 DMP         0.0645
     46 H4        -11.2065   16.4684   29.8579 H         1 DMP         0.0606
     47 H5         -8.1902   14.4316   25.7280 H         1 DMP         0.0670
     48 H6         -6.9450   15.7242   25.6569 H         1 DMP         0.0670
     49 H7        -10.6720   15.6927   24.6955 H         1 DMP         0.0540
     50 H8        -11.3506   16.2969   22.3527 H         1 DMP         0.0540
     51 H9         -7.1845   16.8729   21.3257 H         1 DMP         0.0540
     52 H10        -6.5169   16.2888   23.6405 H         1 DMP         0.0540
     53 H11       -10.7110   17.3973   20.2565 H         1 DMP         0.0708
     54 H12        -9.6175   16.1190   19.6266 H         1 DMP         0.0708
     55 H13        -7.6093   17.5957   28.7873 H         1 DMP         0.0449
     56 H14        -7.7773   19.2133   28.0244 H         1 DMP         0.0449
     57 H15        -5.5602   16.5060   28.6464 H         1 DMP         0.0557
     58 H16        -3.3395   16.1894   27.5528 H         1 DMP         0.0599
     59 H17        -2.7678   17.4841   25.5054 H         1 DMP         0.0559
     60 H18        -4.3847   19.1319   24.5519 H         1 DMP         0.0599
     61 H19        -6.5979   19.4755   25.6621 H         1 DMP         0.0557
     62 H20       -11.5060   15.7284   26.9266 H         1 DMP         0.0449
     63 H21       -12.7366   16.6390   27.8662 H         1 DMP         0.0449
     64 H22       -13.1943   15.6184   30.3133 H         1 DMP         0.0557
     65 H23       -13.6494   13.4616   31.5042 H         1 DMP         0.0599
     66 H24       -13.1377   11.2975   30.3619 H         1 DMP         0.0559
     67 H25       -12.1948   11.2718   28.0562 H         1 DMP         0.0599
     68 H26       -11.7023   13.4241   26.8833 H         1 DMP         0.0557
     69 H27        -8.4895   14.1997   29.9576 H         1 DMP         0.0670
     70 H28       -10.2622   13.9115   29.9884 H         1 DMP         0.0670
     71 H29       -10.8560   13.7101   32.0395 H         1 DMP         0.0540
     72 H30       -11.0275   14.5841   34.3575 H         1 DMP         0.0540
     73 H31        -8.4554   17.9250   33.3229 H         1 DMP         0.0540
     74 H32        -8.2791   17.0312   30.9813 H         1 DMP         0.0540
     75 H33        -9.6699   17.8751   35.4329 H         1 DMP         0.0708
     76 H34        -9.0964   16.2788   36.0241 H         1 DMP         0.0708
     77 H35       -10.8144   19.9744   27.0095 H         1 DMP         0.2100
     78 H36       -11.6132   19.5226   28.7630 H         1 DMP         0.2100
     79 H37        -9.0662   18.2361   18.8482 H         1 DMP         0.2124
     80 H38       -11.1904   16.8471   36.8612 H         1 DMP         0.2124
@<TRIPOS>BOND
     1    1   38 2  
     2    1   37 am 
     3    1   36 am 
     4   36    6 1  
     5   36    2 1  
     6    2   14 1  
     7    2    3 1  
     8    3   39 1  
     9    3    4 1  
    10    4   40 1  
    11    4    5 1  
    12    5   37 1  
    13    5   21 1  
    14   21   22 1  
    15   22   27 ar 
    16   22   23 ar 
    17   23   24 ar 
    18   24   25 ar 
    19   25   26 ar 
    20   26   27 ar 
    21   37   28 1  
    22   28   29 1  
    23   29   34 ar 
    24   29   30 ar 
    25   30   31 ar 
    26   31   32 ar 
    27   32   35 1  
    28   32   33 ar 
    29   33   34 ar 
    30   35   42 1  
    31   14   15 1  
    32   15   20 ar 
    33   15   16 ar 
    34   16   17 ar 
    35   17   18 ar 
    36   18   19 ar 
    37   19   20 ar 
    38    6    7 1  
    39    7   12 ar 
    40    7    8 ar 
    41    8    9 ar 
    42    9   10 ar 
    43   10   13 1  
    44   10   11 ar 
    45   11   12 ar 
    46   13   41 1  
    47    2   43 1  
    48    3   44 1  
    49    4   45 1  
    50    5   46 1  
    51    6   47 1  
    52    6   48 1  
    53    8   49 1  
    54    9   50 1  
    55   11   51 1  
    56   12   52 1  
    57   13   53 1  
    58   13   54 1  
    59   14   55 1  
    60   14   56 1  
    61   16   57 1  
    62   17   58 1  
    63   18   59 1  
    64   19   60 1  
    65   20   61 1  
    66   21   62 1  
    67   21   63 1  
    68   23   64 1  
    69   24   65 1  
    70   25   66 1  
    71   26   67 1  
    72   27   68 1  
    73   28   69 1  
    74   28   70 1  
    75   30   71 1  
    76   31   72 1  
    77   33   73 1  
    78   34   74 1  
    79   35   75 1  
    80   35   76 1  
    81   39   77 1  
    82   40   78 1  
    83   41   79 1  
    84   42   80 1  
@<TRIPOS>SUBSTRUCTURE
     1 DMP         1

