### 
### Created by X-TOOL on Mon Sep 10 21:12:46 2018
### 

@<TRIPOS>MOLECULE
1meu_ligand
   80    84     1     0     0
SMALL
GAST_HUCK


@<TRIPOS>ATOM
      1 C1         -8.9480   15.3110   27.9210 C.2       1 DMP         0.2669
      2 C3         -8.6760   17.6560   27.2240 C.3       1 DMP         0.0852
      3 C4        -10.0640   18.2430   27.2450 C.3       1 DMP         0.1081
      4 C5        -10.7080   17.9730   28.5820 C.3       1 DMP         0.1081
      5 C6        -10.9750   16.4990   28.7890 C.3       1 DMP         0.0852
      6 C20        -7.8700   15.6920   25.8380 C.3       1 DMP         0.0654
      7 C21        -8.4010   16.0210   24.4780 C.ar      1 DMP        -0.0277
      8 C22        -9.7730   16.1280   24.1590 C.ar      1 DMP        -0.0648
      9 C23       -10.1730   16.4560   22.8430 C.ar      1 DMP        -0.0646
     10 C24        -9.1950   16.6400   21.8460 C.ar      1 DMP        -0.0245
     11 C25        -7.8230   16.5290   22.1780 C.ar      1 DMP        -0.0646
     12 C26        -7.4350   16.2030   23.4820 C.ar      1 DMP        -0.0648
     13 C27        -9.5970   17.0020   20.4320 C.3       1 DMP         0.0751
     14 C30        -7.7430   18.0420   28.3950 C.3       1 DMP         0.0067
     15 C31        -6.3540   18.3110   27.8950 C.ar      1 DMP        -0.0408
     16 C32        -5.4370   17.2620   27.6650 C.ar      1 DMP        -0.0603
     17 C33        -4.1790   17.5510   27.0960 C.ar      1 DMP        -0.0686
     18 C34        -3.8420   18.8820   26.7590 C.ar      1 DMP        -0.0687
     19 C35        -4.7540   19.9340   27.0010 C.ar      1 DMP        -0.0686
     20 C36        -6.0140   19.6420   27.5600 C.ar      1 DMP        -0.0603
     21 C60       -12.0060   15.8310   27.8720 C.3       1 DMP         0.0067
     22 C61       -12.7110   14.6720   28.5480 C.ar      1 DMP        -0.0408
     23 C62       -13.8040   14.9400   29.4110 C.ar      1 DMP        -0.0603
     24 C63       -14.4640   13.8730   30.0590 C.ar      1 DMP        -0.0686
     25 C64       -14.0350   12.5430   29.8410 C.ar      1 DMP        -0.0687
     26 C65       -12.9410   12.2760   28.9840 C.ar      1 DMP        -0.0686
     27 C66       -12.2890   13.3390   28.3240 C.ar      1 DMP        -0.0603
     28 C70        -9.7870   14.7330   30.0520 C.3       1 DMP         0.0654
     29 C71        -9.8780   15.3740   31.3940 C.ar      1 DMP        -0.0277
     30 C72       -10.7030   14.6960   32.3090 C.ar      1 DMP        -0.0648
     31 C73       -10.7340   15.1090   33.6420 C.ar      1 DMP        -0.0646
     32 C74        -9.9590   16.2170   34.0610 C.ar      1 DMP        -0.0245
     33 C75        -9.1390   16.9140   33.1290 C.ar      1 DMP        -0.0646
     34 C76        -9.1080   16.5000   31.7760 C.ar      1 DMP        -0.0648
     35 C77        -9.9760   16.6140   35.5210 C.3       1 DMP         0.0751
     36 N2         -8.5810   16.2070   27.0070 N.am      1 DMP        -0.2414
     37 N7         -9.8390   15.5840   28.8890 N.am      1 DMP        -0.2414
     38 O1         -8.4320   14.2080   27.8780 O.2       1 DMP        -0.4002
     39 O4         -9.8800   19.6180   27.0300 O.3       1 DMP        -0.3867
     40 O5        -11.9580   18.6050   28.6680 O.3       1 DMP        -0.3867
     41 O27        -8.6890   17.9530   19.8460 O.3       1 DMP        -0.3836
     42 O77       -11.2820   16.5130   36.0970 O.3       1 DMP        -0.3836
     43 H1         -8.2181   18.1094   26.3326 H         1 DMP         0.0606
     44 H2        -10.6831   17.8097   26.4457 H         1 DMP         0.0645
     45 H3        -10.0441   18.3451   29.3762 H         1 DMP         0.0645
     46 H4        -11.4339   16.4783   29.7885 H         1 DMP         0.0606
     47 H5         -7.8545   14.5955   25.9242 H         1 DMP         0.0670
     48 H6         -6.8412   16.0783   25.8872 H         1 DMP         0.0670
     49 H7        -10.5210   15.9582   24.9250 H         1 DMP         0.0540
     50 H8        -11.2245   16.5651   22.6031 H         1 DMP         0.0540
     51 H9         -7.0691   16.6976   21.4176 H         1 DMP         0.0540
     52 H10        -6.3837   16.0911   23.7214 H         1 DMP         0.0540
     53 H11       -10.6069   17.4376   20.4492 H         1 DMP         0.0708
     54 H12        -9.6018   16.0892   19.8182 H         1 DMP         0.0708
     55 H13        -7.7126   17.2160   29.1208 H         1 DMP         0.0449
     56 H14        -8.1326   18.9465   28.8850 H         1 DMP         0.0449
     57 H15        -5.6979   16.2422   27.9238 H         1 DMP         0.0557
     58 H16        -3.4695   16.7512   26.9169 H         1 DMP         0.0599
     59 H17        -2.8780   19.0969   26.3122 H         1 DMP         0.0559
     60 H18        -4.4867   20.9562   26.7588 H         1 DMP         0.0599
     61 H19        -6.7256   20.4410   27.7339 H         1 DMP         0.0557
     62 H20       -11.4916   15.4572   26.9744 H         1 DMP         0.0449
     63 H21       -12.7569   16.5797   27.5793 H         1 DMP         0.0449
     64 H22       -14.1317   15.9606   29.5727 H         1 DMP         0.0557
     65 H23       -15.2978   14.0729   30.7222 H         1 DMP         0.0599
     66 H24       -14.5469   11.7239   30.3330 H         1 DMP         0.0559
     67 H25       -12.6045   11.2564   28.8348 H         1 DMP         0.0599
     68 H26       -11.4671   13.1358   27.6471 H         1 DMP         0.0557
     69 H27        -8.8330   14.1866   30.0148 H         1 DMP         0.0670
     70 H28       -10.6211   14.0203   29.9730 H         1 DMP         0.0670
     71 H29       -11.3099   13.8595   31.9818 H         1 DMP         0.0540
     72 H30       -11.3528   14.5801   34.3578 H         1 DMP         0.0540
     73 H31        -8.5412   17.7578   33.4541 H         1 DMP         0.0540
     74 H32        -8.5078   17.0332   31.0476 H         1 DMP         0.0540
     75 H33        -9.6306   17.6547   35.6085 H         1 DMP         0.0708
     76 H34        -9.2932   15.9532   36.0751 H         1 DMP         0.0708
     77 H35       -10.7244   20.0534   27.0313 H         1 DMP         0.2100
     78 H36       -11.8453   19.5427   28.5649 H         1 DMP         0.2100
     79 H37        -8.9717   18.1559   18.9620 H         1 DMP         0.2124
     80 H38       -11.2448   16.7709   37.0106 H         1 DMP         0.2124
@<TRIPOS>BOND
     1    1   38 2  
     2    1   37 am 
     3    1   36 am 
     4   36    6 1  
     5   36    2 1  
     6    2   14 1  
     7    2    3 1  
     8    3   39 1  
     9    3    4 1  
    10    4   40 1  
    11    4    5 1  
    12    5   37 1  
    13    5   21 1  
    14   21   22 1  
    15   22   27 ar 
    16   22   23 ar 
    17   23   24 ar 
    18   24   25 ar 
    19   25   26 ar 
    20   26   27 ar 
    21   37   28 1  
    22   28   29 1  
    23   29   34 ar 
    24   29   30 ar 
    25   30   31 ar 
    26   31   32 ar 
    27   32   35 1  
    28   32   33 ar 
    29   33   34 ar 
    30   35   42 1  
    31   14   15 1  
    32   15   20 ar 
    33   15   16 ar 
    34   16   17 ar 
    35   17   18 ar 
    36   18   19 ar 
    37   19   20 ar 
    38    6    7 1  
    39    7   12 ar 
    40    7    8 ar 
    41    8    9 ar 
    42    9   10 ar 
    43   10   13 1  
    44   10   11 ar 
    45   11   12 ar 
    46   13   41 1  
    47    2   43 1  
    48    3   44 1  
    49    4   45 1  
    50    5   46 1  
    51    6   47 1  
    52    6   48 1  
    53    8   49 1  
    54    9   50 1  
    55   11   51 1  
    56   12   52 1  
    57   13   53 1  
    58   13   54 1  
    59   14   55 1  
    60   14   56 1  
    61   16   57 1  
    62   17   58 1  
    63   18   59 1  
    64   19   60 1  
    65   20   61 1  
    66   21   62 1  
    67   21   63 1  
    68   23   64 1  
    69   24   65 1  
    70   25   66 1  
    71   26   67 1  
    72   27   68 1  
    73   28   69 1  
    74   28   70 1  
    75   30   71 1  
    76   31   72 1  
    77   33   73 1  
    78   34   74 1  
    79   35   75 1  
    80   35   76 1  
    81   39   77 1  
    82   40   78 1  
    83   41   79 1  
    84   42   80 1  
@<TRIPOS>SUBSTRUCTURE
     1 DMP         1

