### 
### Created by X-TOOL on Mon Sep 10 21:12:50 2018
### 

@<TRIPOS>MOLECULE
1mf4_ligand
   84    84     1     0     0
SMALL
GAST_HUCK


@<TRIPOS>ATOM
      1 N          19.5260   13.8380    7.0960 N.4       1 VAL         0.2381
      2 CA         18.7340   12.9280    6.2230 C.3       1 VAL         0.0673
      3 C          17.5550   12.2860    7.0130 C.2       1 VAL         0.2269
      4 O          17.7640   11.3790    7.8250 O.2       1 VAL        -0.3907
      5 CB         19.6780   11.9110    5.4580 C.3       1 VAL         0.0139
      6 CG1        21.0390   12.5300    5.1810 C.3       1 VAL        -0.0553
      7 CG2        19.8720   10.6280    6.2070 C.3       1 VAL        -0.0553
      8 N          16.3350   12.8180    6.8190 N.am      1 ALA        -0.2613
      9 CA         15.0890   12.2200    7.3800 C.3       1 ALA         0.1283
     10 C          13.8640   11.9120    6.4290 C.2       1 ALA         0.2037
     11 O          13.7680   10.7480    6.1670 O.2       1 ALA        -0.3944
     12 CB         14.6370   12.9380    8.6630 C.3       1 ALA        -0.0244
     13 N          13.2070   12.9060    5.8000 N.am      1 PHE        -0.2619
     14 CA         12.0300   12.6530    4.8990 C.3       1 PHE         0.1404
     15 C          11.5620   13.8280    4.0170 C.2       1 PHE         0.2060
     16 O          12.1470   14.9180    3.9790 O.2       1 PHE        -0.3942
     17 CB         10.6930   12.5520    5.6410 C.3       1 PHE         0.0214
     18 CG         10.4280   11.3260    6.4650 C.ar      1 PHE        -0.0386
     19 CD1        11.4060   10.5690    7.0850 C.ar      1 PHE        -0.0601
     20 CD2         9.0960   11.0220    6.7130 C.ar      1 PHE        -0.0601
     21 CE1        11.0310    9.4850    7.8980 C.ar      1 PHE        -0.0686
     22 CE2         8.7240    9.9710    7.5070 C.ar      1 PHE        -0.0686
     23 CZ          9.6840    9.1950    8.1020 C.ar      1 PHE        -0.0687
     24 N          10.3680   13.5790    3.4520 N.am      1 ARG        -0.2636
     25 CA          9.5520   14.5050    2.6580 C.3       1 ARG         0.1311
     26 C           8.0630   14.1990    2.7340 C.2       1 ARG         0.2034
     27 O           7.6110   13.2870    3.4200 O.2       1 ARG        -0.3944
     28 CB          9.8150   14.3110    1.1810 C.3       1 ARG        -0.0092
     29 CG         10.0480   15.5610    0.4500 C.3       1 ARG        -0.0156
     30 CD         11.4690   15.8300    0.5690 C.3       1 ARG         0.0627
     31 NE         11.9380   17.0500   -0.0290 N.pl3     1 ARG        -0.2723
     32 CZ         13.2030   17.3810    0.0500 C.cat     1 ARG         0.2882
     33 NH1        14.0240   16.5580    0.6930 N.pl3     1 ARG        -0.2849
     34 NH2        13.6510   18.4990   -0.4880 N.pl3     1 ARG        -0.2849
     35 N           7.3470   14.9500    1.9030 N.am      1 SER        -0.2672
     36 CA          5.9080   14.8640    1.6190 C.3       1 SER         0.1173
     37 C           4.9250   14.1660    2.5520 C.2       1 SER         0.0623
     38 O           4.8160   14.7010    3.6540 O.co2     1 SER        -0.5665
     39 CB          5.6950   14.3050    0.2140 C.3       1 SER         0.0789
     40 OG          4.3210   14.3640   -0.1330 O.3       1 SER        -0.3910
     41 O1          4.2818   13.1335    2.2236 O.co2     1 SER        -0.5665
     42 H1         18.9041   14.4737    7.5706 H         1 VAL         0.2015
     43 H2         20.1766   14.3625    6.5323 H         1 VAL         0.2015
     44 H3         20.0333   13.2939    7.7761 H         1 VAL         0.2015
     45 H4         18.2717   13.5541    5.4457 H         1 VAL         0.1101
     46 H5         19.2021   11.6748    4.4948 H         1 VAL         0.0376
     47 H6         21.6713   11.8029    4.6504 H         1 VAL         0.0236
     48 H7         21.5169   12.8059    6.1326 H         1 VAL         0.0236
     49 H8         20.9134   13.4289    4.5596 H         1 VAL         0.0236
     50 H9         18.8924   10.1717    6.4125 H         1 VAL         0.0236
     51 H10        20.3878   10.8323    7.1568 H         1 VAL         0.0236
     52 H11        20.4781    9.9380    5.6016 H         1 VAL         0.0236
     53 H12        16.2598   13.6528    6.2736 H         1 ALA         0.1884
     54 H13        15.4128   11.2221    7.7107 H         1 ALA         0.0797
     55 H14        13.7181   12.4672    9.0423 H         1 ALA         0.0277
     56 H15        14.4413   13.9974    8.4408 H         1 ALA         0.0277
     57 H16        15.4282   12.8629    9.4234 H         1 ALA         0.0277
     58 H17        13.5138   13.8478    5.9376 H         1 PHE         0.1885
     59 H18        12.2474   11.7556    4.3012 H         1 PHE         0.0823
     60 H19         9.8957   12.6155    4.8859 H         1 PHE         0.0474
     61 H20        10.6287   13.4182    6.3159 H         1 PHE         0.0474
     62 H21        12.4536   10.8098    6.9450 H         1 PHE         0.0557
     63 H22         8.3254   11.6373    6.2629 H         1 PHE         0.0557
     64 H23        11.7926    8.8730    8.3676 H         1 PHE         0.0599
     65 H24         7.6738    9.7533    7.6646 H         1 PHE         0.0599
     66 H25         9.3963    8.3588    8.7289 H         1 PHE         0.0559
     67 H26         9.9945   12.6614    3.5877 H         1 ARG         0.1883
     68 H27         9.7612   15.5373    2.9751 H         1 ARG         0.0800
     69 H28         8.9435   13.8075    0.7371 H         1 ARG         0.0313
     70 H29        10.7039   13.6730    1.0683 H         1 ARG         0.0313
     71 H30         9.4646   16.3800    0.8960 H         1 ARG         0.0301
     72 H31         9.7676   15.4444   -0.6072 H         1 ARG         0.0301
     73 H32        12.0088   14.9961    0.0966 H         1 ARG         0.0689
     74 H33        11.7148   15.8658    1.6406 H         1 ARG         0.0689
     75 H34        11.2765   17.6668   -0.5219 H         1 ARG         0.2642
     76 H35        15.0247   16.7880    0.7736 H         1 ARG         0.2615
     77 H36        13.6598   15.6899    1.1109 H         1 ARG         0.2615
     78 H37        13.0030   19.1278   -0.9837 H         1 ARG         0.2615
     79 H38        14.6488   18.7432   -0.4124 H         1 ARG         0.2615
     80 H39         7.8495   15.6607    1.4107 H         1 SER         0.1876
     81 H40         5.5746   15.9121    1.6036 H         1 SER         0.0749
     82 H41         6.0328   13.2586    0.1841 H         1 SER         0.0599
     83 H42         6.2774   14.8990   -0.5057 H         1 SER         0.0599
     84 H43         3.8167   13.8501    0.4867 H         1 SER         0.2096
@<TRIPOS>BOND
     1    1    2 1  
     2    2    3 1  
     3    2    5 1  
     4    3    4 2  
     5    3    8 am 
     6    5    6 1  
     7    5    7 1  
     8    8    9 1  
     9    9   10 1  
    10    9   12 1  
    11   10   11 2  
    12   10   13 am 
    13   13   14 1  
    14   14   15 1  
    15   14   17 1  
    16   15   16 2  
    17   15   24 am 
    18   17   18 1  
    19   18   19 ar 
    20   18   20 ar 
    21   19   21 ar 
    22   20   22 ar 
    23   21   23 ar 
    24   22   23 ar 
    25   24   25 1  
    26   25   26 1  
    27   25   28 1  
    28   26   27 2  
    29   26   35 am 
    30   28   29 1  
    31   29   30 1  
    32   30   31 1  
    33   31   32 ar 
    34   32   33 ar 
    35   32   34 ar 
    36   35   36 1  
    37   36   37 1  
    38   36   39 1  
    39   37   38 ar 
    40   37   41 ar 
    41   39   40 1  
    42    1   42 1  
    43    1   43 1  
    44    1   44 1  
    45    2   45 1  
    46    5   46 1  
    47    6   47 1  
    48    6   48 1  
    49    6   49 1  
    50    7   50 1  
    51    7   51 1  
    52    7   52 1  
    53    8   53 1  
    54    9   54 1  
    55   12   55 1  
    56   12   56 1  
    57   12   57 1  
    58   13   58 1  
    59   14   59 1  
    60   17   60 1  
    61   17   61 1  
    62   19   62 1  
    63   20   63 1  
    64   21   64 1  
    65   22   65 1  
    66   23   66 1  
    67   24   67 1  
    68   25   68 1  
    69   28   69 1  
    70   28   70 1  
    71   29   71 1  
    72   29   72 1  
    73   30   73 1  
    74   30   74 1  
    75   31   75 1  
    76   33   76 1  
    77   33   77 1  
    78   34   78 1  
    79   34   79 1  
    80   35   80 1  
    81   36   81 1  
    82   39   82 1  
    83   39   83 1  
    84   40   84 1  
@<TRIPOS>SUBSTRUCTURE
     1 VAL         1

