### 
### Created by X-TOOL on Mon Sep 10 21:12:45 2018
### 

@<TRIPOS>MOLECULE
1mfa_ligand
   67    69     1     0     0
SMALL
GAST_HUCK


@<TRIPOS>ATOM
      1 C1         10.7060   -8.9050   64.6760 C.3       1 GLA         0.1885
      2 C2         11.5500   -8.1390   65.6610 C.3       1 GLA         0.1341
      3 C3         11.6750   -8.8030   67.0060 C.3       1 GLA         0.1141
      4 C4         10.2940   -9.2450   67.4840 C.3       1 GLA         0.1119
      5 C5          9.6710  -10.2030   66.4400 C.3       1 GLA         0.1130
      6 C6          8.3200  -10.7980   66.8990 C.3       1 GLA         0.0730
      7 O2         12.8480   -8.0600   65.1630 O.3       1 GLA        -0.3841
      8 O3         12.2400   -7.8490   67.8820 O.3       1 GLA        -0.3864
      9 O4          9.4940   -8.0750   67.6350 O.3       1 GLA        -0.3865
     10 O5          9.4960   -9.4460   65.2230 O.3       1 GLA        -0.3405
     11 O6          8.0070  -11.9680   66.1500 O.3       1 GLA        -0.3924
     12 C1         10.1940  -11.6420   63.1380 C.3       1 MMA         0.1880
     13 C2         11.0770  -10.4460   62.8910 C.3       1 MMA         0.1410
     14 C3         12.2940  -10.8070   62.0500 C.3       1 MMA         0.1209
     15 C4         13.0420  -12.0170   62.6330 C.3       1 MMA         0.1123
     16 C5         12.0610  -13.1800   62.8670 C.3       1 MMA         0.1130
     17 C6         12.6430  -14.4110   63.5740 C.3       1 MMA         0.0730
     18 C7          8.4880  -12.8950   61.9170 C.3       1 MMA         0.0395
     19 O1          9.6110  -12.0020   61.8990 O.3       1 MMA        -0.3519
     20 O2         11.5170   -9.9660   64.1460 O.3       1 MMA        -0.3377
     21 O3         13.1770   -9.6680   62.0310 O.3       1 MMA        -0.3401
     22 O4         14.0830  -12.4220   61.7600 O.3       1 MMA        -0.3865
     23 O5         10.9850  -12.7090   63.6700 O.3       1 MMA        -0.3405
     24 O6         13.1760  -14.0250   64.8430 O.3       1 MMA        -0.3924
     25 C1         13.7270   -9.3240   60.7320 C.3       1 ABE         0.1859
     26 C2         14.8940   -8.3880   60.9610 C.3       1 ABE         0.1084
     27 C3         14.3860   -7.0230   61.4200 C.3       1 ABE         0.0065
     28 C4         13.3880   -6.5130   60.3760 C.3       1 ABE         0.0837
     29 C5         12.2170   -7.4920   60.2770 C.3       1 ABE         0.0849
     30 C6         11.1940   -7.0300   59.2240 C.3       1 ABE        -0.0361
     31 O2         15.7160   -8.9730   61.9510 O.3       1 ABE        -0.3867
     32 O4         14.0260   -6.3780   59.1000 O.3       1 ABE        -0.3892
     33 O5         12.7360   -8.7700   59.8900 O.3       1 ABE        -0.3433
     34 H1         10.4279   -8.2223   63.8596 H         1 GLA         0.0938
     35 H2         11.1232   -7.1332   65.7879 H         1 GLA         0.0671
     36 H3         12.3337   -9.6812   66.9362 H         1 GLA         0.0648
     37 H4         10.3789   -9.7638   68.4502 H         1 GLA         0.0647
     38 H5         10.3690  -11.0333   66.2574 H         1 GLA         0.0647
     39 H6          7.5267  -10.0507   66.7502 H         1 GLA         0.0584
     40 H7          8.3834  -11.0581   67.9659 H         1 GLA         0.0584
     41 H8         13.1963   -8.9365   65.0495 H         1 GLA         0.2101
     42 H9         13.0923   -7.5859   67.5549 H         1 GLA         0.2100
     43 H10         9.8964   -7.4978   68.2732 H         1 GLA         0.2100
     44 H11         7.1751  -12.3187   66.4456 H         1 GLA         0.2095
     45 H12         9.4026  -11.3838   63.8570 H         1 GLA         0.0937
     46 H13        10.4986   -9.6668   62.3730 H         1 GLA         0.0675
     47 H14        11.9707  -11.0439   61.0256 H         1 GLA         0.0651
     48 H15        13.4839  -11.7276   63.5978 H         1 GLA         0.0647
     49 H16        11.6771  -13.4987   61.8867 H         1 GLA         0.0647
     50 H17        13.4438  -14.8439   62.9565 H         1 GLA         0.0584
     51 H18        11.8494  -15.1582   63.7218 H         1 GLA         0.0584
     52 H19         8.1490  -13.0786   60.8868 H         1 GLA         0.0525
     53 H20         7.6698  -12.4435   62.4972 H         1 GLA         0.0525
     54 H21         8.7843  -13.8475   62.3807 H         1 GLA         0.0525
     55 H22        13.7135  -12.6621   60.9183 H         1 GLA         0.2100
     56 H23        12.4838  -13.6514   65.3755 H         1 GLA         0.2095
     57 H24        14.1031  -10.2394   60.2519 H         1 GLA         0.0937
     58 H25        15.4647   -8.2669   60.0285 H         1 GLA         0.0645
     59 H26        15.2283   -6.3207   61.5053 H         1 GLA         0.0317
     60 H27        13.8883   -7.1190   62.3963 H         1 GLA         0.0317
     61 H28        13.0096   -5.5294   60.6910 H         1 GLA         0.0620
     62 H29        11.7211   -7.5700   61.2558 H         1 GLA         0.0620
     63 H30        10.3658   -7.7523   59.1759 H         1 GLA         0.0255
     64 H31        11.6830   -6.9668   58.2407 H         1 GLA         0.0255
     65 H32        10.8020   -6.0408   59.5028 H         1 GLA         0.0255
     66 H33        15.2159   -9.0843   62.7510 H         1 GLA         0.2100
     67 H34        14.3597   -7.2233   58.8230 H         1 GLA         0.2099
@<TRIPOS>BOND
     1    1   10 1  
     2    1    2 1  
     3    2    7 1  
     4    2    3 1  
     5    3    8 1  
     6    3    4 1  
     7    4    9 1  
     8    5    4 1  
     9   10    5 1  
    10    5    6 1  
    11    6   11 1  
    12   12   23 1  
    13   12   19 1  
    14   13   12 1  
    15   13   20 1  
    16   14   13 1  
    17   21   14 1  
    18   14   15 1  
    19   15   22 1  
    20   15   16 1  
    21   16   23 1  
    22   16   17 1  
    23   17   24 1  
    24   19   18 1  
    25   25   33 1  
    26   25   26 1  
    27   26   31 1  
    28   26   27 1  
    29   27   28 1  
    30   28   32 1  
    31   29   28 1  
    32   33   29 1  
    33   29   30 1  
    34   20    1 1  
    35   21   25 1  
    36    1   34 1  
    37    2   35 1  
    38    3   36 1  
    39    4   37 1  
    40    5   38 1  
    41    6   39 1  
    42    6   40 1  
    43    7   41 1  
    44    8   42 1  
    45    9   43 1  
    46   11   44 1  
    47   12   45 1  
    48   13   46 1  
    49   14   47 1  
    50   15   48 1  
    51   16   49 1  
    52   17   50 1  
    53   17   51 1  
    54   18   52 1  
    55   18   53 1  
    56   18   54 1  
    57   22   55 1  
    58   24   56 1  
    59   25   57 1  
    60   26   58 1  
    61   27   59 1  
    62   27   60 1  
    63   28   61 1  
    64   29   62 1  
    65   30   63 1  
    66   30   64 1  
    67   30   65 1  
    68   31   66 1  
    69   32   67 1  
@<TRIPOS>SUBSTRUCTURE
     1 GLA         1

