### 
### Created by X-TOOL on Fri Nov 18 12:23:43 2016
### 

@<TRIPOS>MOLECULE
1mfi_ligand
   19    19     1     0     0
SMALL
GAST_HUCK


@<TRIPOS>ATOM
      1 C1         -5.7790   12.8310   -3.4600 C.ar      1 FHC        -0.0349
      2 C7         -6.3270   11.7680   -4.3150 C.2       1 FHC        -0.0232
      3 C8         -5.8020   10.5790   -4.6410 C.2       1 FHC         0.1627
      4 C9         -4.4330   10.1460   -4.3210 C.2       1 FHC         0.0898
      5 O3         -4.3300    8.8990   -4.0560 O.co2     1 FHC        -0.5606
      6 O2         -3.4890   10.9710   -4.4260 O.co2     1 FHC        -0.5606
      7 C6         -4.6470   12.6650   -2.6530 C.ar      1 FHC        -0.0628
      8 C5         -4.2200   13.7210   -1.8080 C.ar      1 FHC        -0.0316
      9 C4         -4.9750   14.9330   -1.7730 C.ar      1 FHC         0.0896
     10 O1         -4.6130   15.9730   -0.9510 O.3       1 FHC        -0.3317
     11 C3         -6.0590   15.1180   -2.6040 C.ar      1 FHC        -0.0316
     12 C2         -6.4580   14.0670   -3.4230 C.ar      1 FHC        -0.0628
     13 F1         -6.5830    9.7240   -5.4240 F         1 FHC        -0.1799
     14 H1         -7.3042   11.9779   -4.7474 H         1 FHC         0.0595
     15 H2         -4.0977   11.7307   -2.6740 H         1 FHC         0.0595
     16 H3         -3.3319   13.6097   -1.1965 H         1 FHC         0.0549
     17 H4         -5.3366   16.1851   -0.3732 H         1 FHC         0.2492
     18 H5         -6.5896   16.0631   -2.6189 H         1 FHC         0.0549
     19 H6         -7.3256   14.2031   -4.0584 H         1 FHC         0.0595
@<TRIPOS>BOND
     1    3   13 1  
     2    1   12 ar 
     3    1    7 ar 
     4    2    1 1  
     5    2    3 2  
     6    3    4 1  
     7    4    6 ar 
     8    4    5 ar 
     9    7    8 ar 
    10    8    9 ar 
    11    9   11 ar 
    12    9   10 1  
    13   11   12 ar 
    14    2   14 1  
    15    7   15 1  
    16    8   16 1  
    17   10   17 1  
    18   11   18 1  
    19   12   19 1  
@<TRIPOS>SUBSTRUCTURE
     1 FHC         1

