### 
### Created by X-TOOL on Mon Sep 10 21:12:49 2018
### 

@<TRIPOS>MOLECULE
1mhw_ligand
  101   104     1     0     0
SMALL
GAST_HUCK


@<TRIPOS>ATOM
      1 CA         -3.7460   13.4580  124.2040 C.3       1 BP4         0.0709
      2 C          -3.6560   14.3890  123.0160 C.2       1 BP4         0.1900
      3 O          -3.1580   13.9460  121.9760 O.2       1 BP4        -0.3939
      4 C2         -3.3070   15.3360  128.2050 C.ar      1 BP4        -0.0239
      5 C3         -2.1300   14.8850  127.4470 C.ar      1 BP4        -0.0596
      6 C4         -2.2710   14.2830  126.1380 C.ar      1 BP4        -0.0566
      7 C5         -3.5910   14.1130  125.5610 C.ar      1 BP4        -0.0233
      8 C6         -4.7680   14.5560  126.2880 C.ar      1 BP4        -0.0566
      9 C1         -4.6330   15.1610  127.5880 C.ar      1 BP4        -0.0596
     10 C11        -2.8670   17.1420  132.2680 C.ar      1 BP4        -0.0626
     11 C18        -4.3130   16.1010  130.4840 C.ar      1 BP4        -0.0556
     12 C20        -3.1540   15.9580  129.5890 C.ar      1 BP4        -0.0219
     13 C23        -4.1750   16.6850  131.8100 C.ar      1 BP4        -0.0622
     14 C25        -1.8430   16.4250  130.0750 C.ar      1 BP4        -0.0556
     15 C26        -1.7020   17.0100  131.4020 C.ar      1 BP4        -0.0622
     16 N          -3.7380   15.8070  123.1760 N.am      1 CYS        -0.2632
     17 CA         -3.3210   16.6960  122.2450 C.3       1 CYS         0.1397
     18 C          -2.2900   17.6900  122.5500 C.2       1 CYS         0.2047
     19 O          -1.8590   17.8680  123.7070 O.2       1 CYS        -0.3944
     20 CB         -4.6070   17.4400  121.6680 C.3       1 CYS         0.0311
     21 SG         -5.9720   16.3120  121.1490 S.3       1 CYS        -0.1735
     22 N          -1.9110   18.3430  121.3460 N.am      1 DAR        -0.2637
     23 CA         -0.8260   19.4220  121.3860 C.3       1 DAR         0.1311
     24 CB         -1.1890   20.6950  122.2750 C.3       1 DAR        -0.0092
     25 CG         -2.6210   21.3250  122.0140 C.3       1 DAR        -0.0156
     26 CD         -2.5350   22.7860  121.9630 C.3       1 DAR         0.0627
     27 NE         -3.6290   23.6130  121.7690 N.pl3     1 DAR        -0.2723
     28 CZ         -4.4780   23.7360  120.6490 C.cat     1 DAR         0.2882
     29 NH1        -4.0390   23.8440  119.3510 N.pl3     1 DAR        -0.2849
     30 NH2        -5.8250   23.7690  120.7540 N.pl3     1 DAR        -0.2849
     31 C          -0.2550   19.9000  120.0890 C.2       1 DAR         0.2040
     32 O           0.8780   20.4090  120.1130 O.2       1 DAR        -0.3944
     33 N          -0.9970   19.7810  118.9970 N.am      1 TYR        -0.2621
     34 CA         -0.5670   20.2220  117.7750 C.3       1 TYR         0.1389
     35 C          -0.9370   21.7280  117.8340 C.2       1 TYR         0.2036
     36 O          -2.0950   22.0340  118.2170 O.2       1 TYR        -0.3944
     37 CB         -1.2670   19.5820  116.5060 C.3       1 TYR         0.0163
     38 CG         -0.9460   20.3900  115.2050 C.ar      1 TYR        -0.0493
     39 CD1         0.2340   20.0580  114.4150 C.ar      1 TYR        -0.0685
     40 CD2        -1.8250   21.5030  114.7690 C.ar      1 TYR        -0.0685
     41 CE1         0.5310   20.8250  113.2280 C.ar      1 TYR        -0.0398
     42 CE2        -1.5110   22.2510  113.5940 C.ar      1 TYR        -0.0398
     43 CZ         -0.3400   21.9170  112.8260 C.ar      1 TYR         0.0805
     44 OH         -0.0530   22.6400  111.7230 O.3       1 TYR        -0.3376
     45 C1'         1.5620   24.9460  119.0640 C.ar      1 PEA        -0.0411
     46 C6'         2.5320   25.3190  118.0360 C.ar      1 PEA        -0.0603
     47 C5'         3.9410   25.4040  118.3670 C.ar      1 PEA        -0.0686
     48 C4'         4.3790   25.1200  119.7200 C.ar      1 PEA        -0.0687
     49 C3'         3.4160   24.7460  120.7400 C.ar      1 PEA        -0.0686
     50 C2'         2.0130   24.6590  120.4170 C.ar      1 PEA        -0.0603
     51 C2          0.0910   24.8530  118.7270 C.3       1 PEA         0.0011
     52 C1         -0.4890   24.3110  117.4620 C.3       1 PEA         0.0405
     53 N          -0.0520   22.8520  117.4330 N.am      1 PEA        -0.2830
     54 H1         -2.9549   12.7006  124.1013 H         1 BP4         0.0662
     55 H2         -4.7298   12.9669  124.1755 H         1 BP4         0.0662
     56 H3         -1.1415   15.0053  127.8752 H         1 BP4         0.0610
     57 H4         -1.3928   13.9602  125.5906 H         1 BP4         0.0564
     58 H5         -5.7518   14.4307  125.8503 H         1 BP4         0.0564
     59 H6         -5.5183   15.4917  128.1190 H         1 BP4         0.0610
     60 H7         -2.7616   17.5803  133.2538 H         1 BP4         0.0610
     61 H8         -5.2879   15.7651  130.1496 H         1 BP4         0.0615
     62 H9         -5.0409   16.7802  132.4552 H         1 BP4         0.0615
     63 H10        -0.9720   16.3319  129.4364 H         1 BP4         0.0615
     64 H11        -0.7306   17.3471  131.7452 H         1 BP4         0.0615
     65 H12        -4.1264   16.1630  124.0260 H         1 CYS         0.1884
     66 H13        -2.8965   16.0861  121.4339 H         1 CYS         0.0808
     67 H14        -4.2986   18.0318  120.7935 H         1 CYS         0.0422
     68 H15        -4.9942   18.1124  122.4477 H         1 CYS         0.0422
     69 H16        -6.7429   16.8585  120.7982 H         1 CYS         0.1019
     70 H17        -2.3491   18.0998  120.4806 H         1 DAR         0.1883
     71 H18         0.0128   18.9302  121.9004 H         1 DAR         0.0800
     72 H19        -0.4359   21.4721  122.0774 H         1 DAR         0.0313
     73 H20        -1.1383   20.3955  123.3322 H         1 DAR         0.0313
     74 H21        -3.3003   21.0302  122.8274 H         1 DAR         0.0301
     75 H22        -3.0121   20.9515  121.0562 H         1 DAR         0.0301
     76 H23        -1.8360   23.0169  121.1457 H         1 DAR         0.0689
     77 H24        -2.0926   23.0940  122.9219 H         1 DAR         0.0689
     78 H25        -3.8568   24.2307  122.5611 H         1 DAR         0.2642
     79 H26        -4.7195   23.9308  118.5827 H         1 DAR         0.2615
     80 H27        -3.0295   23.8382  119.1466 H         1 DAR         0.2615
     81 H28        -6.2714   23.6962  121.6794 H         1 DAR         0.2615
     82 H29        -6.4052   23.8669  119.9086 H         1 DAR         0.2615
     83 H30        -1.8992   19.3557  119.0684 H         1 TYR         0.1885
     84 H31         0.5197   20.0762  117.6865 H         1 TYR         0.0821
     85 H32        -2.3557   19.5759  116.6634 H         1 TYR         0.0453
     86 H33        -0.9085   18.5494  116.3829 H         1 TYR         0.0453
     87 H34         0.8822   19.2430  114.7160 H         1 TYR         0.0530
     88 H35        -2.7096   21.7494  115.3451 H         1 TYR         0.0530
     89 H36         1.4062   20.5856  112.6349 H         1 TYR         0.0525
     90 H37        -2.1520   23.0674  113.2814 H         1 TYR         0.0525
     91 H38         0.7418   22.3054  111.3243 H         1 TYR         0.2458
     92 H39         2.1981   25.5319  117.0269 H         1 PEA         0.0557
     93 H40         4.6635   25.6785  117.6069 H         1 PEA         0.0599
     94 H41         5.4314   25.1874  119.9711 H         1 PEA         0.0559
     95 H42         3.7526   24.5314  121.7478 H         1 PEA         0.0599
     96 H43         1.2961   24.3803  121.1808 H         1 PEA         0.0557
     97 H44        -0.2865   25.8837  118.7983 H         1 PEA         0.0446
     98 H45        -0.3504   24.2445  119.5300 H         1 PEA         0.0446
     99 H46        -0.0931   24.8523  116.5901 H         1 PEA         0.0542
    100 H47        -1.5863   24.3875  117.4739 H         1 PEA         0.0542
    101 H48         0.8768   22.6402  117.1289 H         1 PEA         0.1853
@<TRIPOS>BOND
     1    2    1 1  
     2    1    7 1  
     3    2    3 2  
     4   16    2 am 
     5    5    4 ar 
     6    9    4 ar 
     7    4   12 1  
     8    6    5 ar 
     9    7    6 ar 
    10    7    8 ar 
    11    8    9 ar 
    12   13   10 ar 
    13   15   10 ar 
    14   12   11 ar 
    15   11   13 ar 
    16   12   14 ar 
    17   14   15 ar 
    18   17   16 1  
    19   18   17 1  
    20   17   20 1  
    21   18   19 2  
    22   22   18 am 
    23   20   21 1  
    24   23   22 1  
    25   23   24 1  
    26   31   23 1  
    27   24   25 1  
    28   25   26 1  
    29   26   27 1  
    30   27   28 ar 
    31   28   29 ar 
    32   28   30 ar 
    33   31   32 2  
    34   33   31 am 
    35   34   33 1  
    36   35   34 1  
    37   34   37 1  
    38   35   36 2  
    39   53   35 am 
    40   37   38 1  
    41   38   39 ar 
    42   38   40 ar 
    43   39   41 ar 
    44   40   42 ar 
    45   41   43 ar 
    46   42   43 ar 
    47   43   44 1  
    48   45   46 ar 
    49   45   50 ar 
    50   51   45 1  
    51   46   47 ar 
    52   47   48 ar 
    53   49   48 ar 
    54   50   49 ar 
    55   52   51 1  
    56   52   53 1  
    57    1   54 1  
    58    1   55 1  
    59    5   56 1  
    60    6   57 1  
    61    8   58 1  
    62    9   59 1  
    63   10   60 1  
    64   11   61 1  
    65   13   62 1  
    66   14   63 1  
    67   15   64 1  
    68   16   65 1  
    69   17   66 1  
    70   20   67 1  
    71   20   68 1  
    72   21   69 1  
    73   22   70 1  
    74   23   71 1  
    75   24   72 1  
    76   24   73 1  
    77   25   74 1  
    78   25   75 1  
    79   26   76 1  
    80   26   77 1  
    81   27   78 1  
    82   29   79 1  
    83   29   80 1  
    84   30   81 1  
    85   30   82 1  
    86   33   83 1  
    87   34   84 1  
    88   37   85 1  
    89   37   86 1  
    90   39   87 1  
    91   40   88 1  
    92   41   89 1  
    93   42   90 1  
    94   44   91 1  
    95   46   92 1  
    96   47   93 1  
    97   48   94 1  
    98   49   95 1  
    99   50   96 1  
   100   51   97 1  
   101   51   98 1  
   102   52   99 1  
   103   52  100 1  
   104   53  101 1  
@<TRIPOS>SUBSTRUCTURE
     1 BP4         1

