### 
### Created by X-TOOL on Mon Sep 10 21:12:50 2018
### 

@<TRIPOS>MOLECULE
1mkd_ligand
   29    30     1     0     0
SMALL
GAST_HUCK


@<TRIPOS>ATOM
      1 O1         44.2410    5.3070  116.0970 O.2       1 ZAR        -0.4115
      2 C2         44.3400    5.5750  117.2810 C.2       1 ZAR         0.2248
      3 N3         44.4200    4.5560  118.2300 N.am      1 ZAR        -0.1542
      4 N4         44.5350    4.8710  119.5950 N.2       1 ZAR        -0.1523
      5 C5         44.5750    6.0820  120.0540 C.2       1 ZAR         0.0784
      6 C6         44.4910    7.2210  119.0520 C.2       1 ZAR        -0.0301
      7 C7         44.3770    7.0080  117.7210 C.2       1 ZAR         0.0123
      8 C8         44.6910    6.2460  121.4060 C.ar      1 ZAR        -0.0241
      9 C9         44.7530    5.1070  122.2860 C.ar      1 ZAR        -0.0347
     10 C10        44.8750    5.2540  123.7050 C.ar      1 ZAR         0.1191
     11 C11        44.9380    6.5610  124.2820 C.ar      1 ZAR         0.1260
     12 C12        44.8770    7.7010  123.4130 C.ar      1 ZAR        -0.0409
     13 C13        44.7530    7.5400  122.0140 C.ar      1 ZAR        -0.0741
     14 C14        45.1660    7.7870  126.5070 C.3       1 ZAR         0.3645
     15 O15        45.0640    6.6480  125.6510 O.3       1 ZAR        -0.2606
     16 F16        46.3110    8.5220  126.1970 F         1 ZAR        -0.1741
     17 F17        44.0770    8.6300  126.3890 F         1 ZAR        -0.1741
     18 O18        44.9340    4.1790  124.5490 O.3       1 ZAR        -0.3252
     19 C19        44.8910    2.7960  124.2100 C.3       1 ZAR         0.0568
     20 H1         44.3955    3.5997  117.9388 H         1 ZAR         0.2767
     21 H2         44.5238    8.2459  119.4186 H         1 ZAR         0.0728
     22 H3         44.3156    7.8303  117.0097 H         1 ZAR         0.0610
     23 H4         44.7060    4.1105  121.8618 H         1 ZAR         0.0495
     24 H5         44.9266    8.6985  123.8345 H         1 ZAR         0.0512
     25 H6         44.7035    8.4211  121.3844 H         1 ZAR         0.0492
     26 H7         45.2315    7.4346  127.5470 H         1 ZAR         0.1416
     27 H8         44.9610    2.1915  125.1264 H         1 ZAR         0.0573
     28 H9         45.7344    2.5547  123.5463 H         1 ZAR         0.0573
     29 H10        43.9444    2.5738  123.6957 H         1 ZAR         0.0573
@<TRIPOS>BOND
     1    1    2 2  
     2    2    3 am 
     3    2    7 1  
     4    3    4 1  
     5    4    5 2  
     6    5    6 1  
     7    5    8 1  
     8    6    7 2  
     9    8    9 ar 
    10    8   13 ar 
    11    9   10 ar 
    12   10   11 ar 
    13   10   18 1  
    14   11   12 ar 
    15   11   15 1  
    16   12   13 ar 
    17   15   14 1  
    18   14   16 1  
    19   14   17 1  
    20   18   19 1  
    21    3   20 1  
    22    6   21 1  
    23    7   22 1  
    24    9   23 1  
    25   12   24 1  
    26   13   25 1  
    27   14   26 1  
    28   19   27 1  
    29   19   28 1  
    30   19   29 1  
@<TRIPOS>SUBSTRUCTURE
     1 ZAR         1

