### 
### Created by X-TOOL on Mon Sep 10 21:12:50 2018
### 

@<TRIPOS>MOLECULE
1mm6_ligand
   20    20     1     0     0
SMALL
GAST_HUCK


@<TRIPOS>ATOM
      1 C01        31.4820   53.5320    6.4030 C.2       1 QUS         0.0866
      2 C02        31.2240   53.7010    4.9040 C.3       1 QUS         0.0520
      3 C03        32.1030   54.8840    4.4700 C.3       1 QUS         0.1233
      4 C04        33.5190   53.7800    2.6490 C.2       1 QUS         0.3201
      5 C05        32.2350   54.4870    0.9390 C.2       1 QUS         0.3771
      6 NP3        29.7520   53.8920    4.7920 N.4       1 QUS         0.2342
      7 N14        32.6260   54.7210    3.1040 N.am      1 QUS        -0.0915
      8 N15        33.2570   53.6660    1.3270 N.am      1 QUS        -0.1566
      9 O16        30.5110   53.5130    7.1890 O.co2     1 QUS        -0.5642
     10 O17        32.6770   53.4180    6.7760 O.co2     1 QUS        -0.5642
     11 O18        34.3390   53.2160    3.3450 O.2       1 QUS        -0.3935
     12 O19        31.7230   54.6570   -0.1470 O.2       1 QUS        -0.3705
     13 O20        31.8060   55.1660    2.0290 O.3       1 QUS        -0.1145
     14 H1         31.5187   52.8047    4.3385 H         1 QUS         0.1046
     15 H2         32.9510   54.9682    5.1655 H         1 QUS         0.0630
     16 H3         31.5023   55.8046    4.5110 H         1 QUS         0.0630
     17 H4         29.2803   53.0569    5.1022 H         1 QUS         0.2011
     18 H5         29.5094   54.0777    3.8314 H         1 QUS         0.2011
     19 H6         29.4695   54.6706    5.3665 H         1 QUS         0.2011
     20 H7         33.7510   53.0551    0.7083 H         1 QUS         0.2278
@<TRIPOS>BOND
     1    2    1 1  
     2    1    9 ar 
     3    1   10 ar 
     4    3    2 1  
     5    2    6 1  
     6    7    3 1  
     7   13    7 1  
     8    5   13 1  
     9    5   12 2  
    10    4   11 2  
    11    8    5 am 
    12    8    4 am 
    13    7    4 am 
    14    2   14 1  
    15    3   15 1  
    16    3   16 1  
    17    6   17 1  
    18    6   18 1  
    19    6   19 1  
    20    8   20 1  
@<TRIPOS>SUBSTRUCTURE
     1 QUS         1

