### 
### Created by X-TOOL on Mon Sep 10 21:12:50 2018
### 

@<TRIPOS>MOLECULE
1mm7_ligand
   20    20     1     0     0
SMALL
GAST_HUCK


@<TRIPOS>ATOM
      1 C01        76.3200   25.9240   44.9670 C.2       1 QUS         0.0866
      2 C02        76.2290   26.2240   43.4660 C.3       1 QUS         0.0520
      3 C03        77.6700   26.5420   43.0440 C.3       1 QUS         0.1233
      4 C04        77.9500   24.8220   41.1760 C.2       1 QUS         0.3201
      5 C05        77.3830   26.2010   39.4900 C.2       1 QUS         0.3771
      6 NP3        75.2300   27.3370   43.3670 N.4       1 QUS         0.2342
      7 N14        77.9110   26.1050   41.6570 N.am      1 QUS        -0.0915
      8 N15        77.6320   24.9180   39.8630 N.am      1 QUS        -0.1566
      9 O16        75.5970   26.5530   45.7490 O.co2     1 QUS        -0.5642
     10 O17        77.1170   25.0430   45.3260 O.co2     1 QUS        -0.5642
     11 O18        78.2130   23.8670   41.8330 O.2       1 QUS        -0.3935
     12 O19        77.0700   26.6560   38.4150 O.2       1 QUS        -0.3705
     13 O20        77.5450   26.9980   40.5930 O.3       1 QUS        -0.1145
     14 H1         75.8660   25.3565   42.8954 H         1 QUS         0.1046
     15 H2         78.3673   26.0185   43.7146 H         1 QUS         0.0630
     16 H3         77.8370   27.6269   43.1157 H         1 QUS         0.0630
     17 H4         74.3273   27.0062   43.6700 H         1 QUS         0.2011
     18 H5         75.1694   27.6501   42.4108 H         1 QUS         0.2011
     19 H6         75.5213   28.1032   43.9537 H         1 QUS         0.2011
     20 H7         77.5858   24.1364   39.2409 H         1 QUS         0.2278
@<TRIPOS>BOND
     1    2    1 1  
     2    1    9 ar 
     3    1   10 ar 
     4    3    2 1  
     5    2    6 1  
     6    7    3 1  
     7   13    7 1  
     8    5   13 1  
     9    5   12 2  
    10    4   11 2  
    11    8    5 am 
    12    8    4 am 
    13    7    4 am 
    14    2   14 1  
    15    3   15 1  
    16    3   16 1  
    17    6   17 1  
    18    6   18 1  
    19    6   19 1  
    20    8   20 1  
@<TRIPOS>SUBSTRUCTURE
     1 QUS         1

