### 
### Created by X-TOOL on Fri Nov 18 12:03:37 2016
### 

@<TRIPOS>MOLECULE
1mmp_ligand
   66    68     1     0     0
SMALL
GAST_HUCK


@<TRIPOS>ATOM
      1 H1         10.5855   43.8374   68.0296 H         1 RSS         0.0458
      2 H2          9.9159   43.4310   66.4131 H         1 RSS         0.0458
      3 H3          9.8312   46.2936   67.4402 H         1 RSS         0.0556
      4 H4          9.0736   46.4465   69.4651 H         1 RSS         0.1884
      5 H5          7.4851   44.2966   70.6788 H         1 RSS         0.0815
      6 H6          5.4089   44.3206   71.1151 H         1 RSS         0.1851
      7 H7          3.4122   45.7682   69.9123 H         1 RSS         0.0520
      8 H8          3.8178   46.7827   71.3381 H         1 RSS         0.0520
      9 H9          3.0450   43.7958   71.3797 H         1 RSS         0.0285
     10 H10         1.9989   45.1605   71.8993 H         1 RSS         0.0285
     11 H11         4.6279   44.3710   73.2449 H         1 RSS         0.0266
     12 H12         3.0007   43.8343   73.7842 H         1 RSS         0.0266
     13 H13         2.3797   46.1827   74.2613 H         1 RSS         0.0266
     14 H14         4.0011   46.7263   73.7115 H         1 RSS         0.0266
     15 H15         4.0561   44.6095   75.7870 H         1 RSS         0.0291
     16 H16         3.2797   46.1399   76.3178 H         1 RSS         0.0291
     17 H17         5.6815   46.0326   76.9538 H         1 RSS         0.0595
     18 H18         5.3516   47.3884   75.8226 H         1 RSS         0.0595
     19 H19         7.9953   44.6588   65.6403 H         1 RSS         0.0296
     20 H20         9.2469   45.8220   65.0859 H         1 RSS         0.0296
     21 H21         6.7937   46.5466   66.7627 H         1 RSS         0.0297
     22 H22         7.3668   48.8811   66.1810 H         1 RSS         0.0232
     23 H23         8.8480   48.3120   65.3392 H         1 RSS         0.0232
     24 H24         8.6841   48.0939   67.1146 H         1 RSS         0.0232
     25 H25         6.2516   45.6809   64.5011 H         1 RSS         0.0232
     26 H26         7.3795   46.8763   63.7762 H         1 RSS         0.0232
     27 H27         5.9064   47.4385   64.6369 H         1 RSS         0.0232
     28 H28         8.4767   46.9812   71.7839 H         1 RSS         0.0397
     29 H29         9.3849   45.4331   71.8553 H         1 RSS         0.0397
     30 H30         6.6053   47.3964   73.5800 H         1 RSS         0.0797
     31 H31         9.0070   42.9860   72.7309 H         1 RSS         0.0540
     32 H32         6.1367   43.5859   76.7989 H         1 RSS         0.0541
     33 C1         11.5580   44.7910   66.3890 C.2       1 RSS         0.0373
     34 O1         11.9450   44.4720   65.1460 O.co2     1 RSS        -0.5688
     35 O2         12.2690   45.6630   66.8920 O.co2     1 RSS        -0.5688
     36 C2         10.3330   44.2360   67.0360 C.3       1 RSS         0.0199
     37 C3          9.3130   45.3600   67.1760 C.3       1 RSS         0.0604
     38 C4          8.3840   44.9480   68.3140 C.2       1 RSS         0.1830
     39 O3          7.6430   43.9600   68.2230 O.2       1 RSS        -0.3965
     40 N2          8.4420   45.6720   69.4300 N.am      1 RSS        -0.2642
     41 C5          7.6250   45.3850   70.6030 C.3       1 RSS         0.1350
     42 C6          6.2760   46.0300   70.5310 C.2       1 RSS         0.2029
     43 O4          6.1860   47.2190   70.2100 O.2       1 RSS        -0.3944
     44 N3          5.2370   45.2760   70.8750 N.am      1 RSS        -0.2850
     45 C7          3.8440   45.7640   70.9240 C.3       1 RSS         0.0310
     46 C8          3.0340   44.7920   71.8460 C.3       1 RSS        -0.0327
     47 C9          3.5640   44.6450   73.2990 C.3       1 RSS        -0.0512
     48 C10         3.4420   45.9070   74.1870 C.3       1 RSS        -0.0506
     49 C11         3.9970   45.6940   75.6130 C.3       1 RSS        -0.0269
     50 C12         5.3930   46.2940   75.9250 C.3       1 RSS         0.0484
     51 N4          6.3890   45.7520   74.9850 N.pl3     1 RSS        -0.2748
     52 C13         8.5260   45.5910   65.8840 C.3       1 RSS        -0.0293
     53 C14         7.4860   46.7310   65.9280 C.3       1 RSS        -0.0443
     54 C15         8.1430   48.1020   66.1570 C.3       1 RSS        -0.0625
     55 C16         6.7010   46.6780   64.6190 C.3       1 RSS        -0.0625
     56 C17         8.3830   45.8870   71.8460 C.3       1 RSS         0.0042
     57 C18         7.6940   45.5410   73.1080 C.2       1 RSS        -0.0416
     58 C19         6.8560   46.3740   73.8590 C.2       1 RSS         0.0195
     59 C20         7.7320   44.3310   73.8390 C.ar      1 RSS        -0.0212
     60 C21         6.9140   44.4990   74.9990 C.ar      1 RSS         0.0627
     61 C22         8.3880   43.1240   73.6100 C.ar      1 RSS        -0.0747
     62 C23         6.7590   43.4620   75.9200 C.ar      1 RSS        -0.0441
     63 C24         8.2290   42.1010   74.5370 C.ar      1 RSS        -0.0792
     64 C25         7.4220   42.2710   75.6800 C.ar      1 RSS        -0.0768
     65 H33         8.7346   41.1554   74.3782 H         1 RSS         0.0510
     66 H34         7.3187   41.4535   76.3844 H         1 RSS         0.0530
@<TRIPOS>BOND
     1   36    1 1  
     2   36    2 1  
     3   37    3 1  
     4   40    4 1  
     5   41    5 1  
     6   44    6 1  
     7   45    7 1  
     8   45    8 1  
     9   46    9 1  
    10   46   10 1  
    11   47   11 1  
    12   47   12 1  
    13   48   13 1  
    14   48   14 1  
    15   49   15 1  
    16   49   16 1  
    17   50   17 1  
    18   50   18 1  
    19   52   19 1  
    20   52   20 1  
    21   53   21 1  
    22   54   22 1  
    23   54   23 1  
    24   54   24 1  
    25   55   25 1  
    26   55   26 1  
    27   55   27 1  
    28   56   28 1  
    29   56   29 1  
    30   58   30 1  
    31   61   31 1  
    32   62   32 1  
    33   63   65 1  
    34   64   66 1  
    35   36   33 1  
    36   33   35 ar 
    37   33   34 ar 
    38   37   36 1  
    39   52   37 1  
    40   37   38 1  
    41   38   40 am 
    42   38   39 2  
    43   40   41 1  
    44   41   56 1  
    45   41   42 1  
    46   42   44 am 
    47   42   43 2  
    48   44   45 1  
    49   45   46 1  
    50   46   47 1  
    51   47   48 1  
    52   48   49 1  
    53   50   49 1  
    54   51   50 1  
    55   60   51 1  
    56   58   51 1  
    57   57   58 2  
    58   57   59 1  
    59   56   57 1  
    60   59   61 ar 
    61   59   60 ar 
    62   60   62 ar 
    63   62   64 ar 
    64   63   64 ar 
    65   61   63 ar 
    66   53   52 1  
    67   53   55 1  
    68   53   54 1  
@<TRIPOS>SUBSTRUCTURE
     1 RSS         1

