### 
### Created by X-TOOL on Mon Sep 10 21:12:45 2018
### 

@<TRIPOS>MOLECULE
1mmq_ligand
   69    71     1     0     0
SMALL
GAST_HUCK


@<TRIPOS>ATOM
      1 C1         47.9690  -40.9710   50.9150 C.2       1 RRS         0.2013
      2 O2         46.7560  -40.8270   50.6010 O.2       1 RRS        -0.3968
      3 N1         48.6030  -41.4840   51.9510 N.am      1 RRS        -0.1641
      4 O1         47.7630  -42.0180   52.9250 O.3       1 RRS        -0.2717
      5 C2         48.7780  -40.2470   49.8760 C.3       1 RRS         0.0585
      6 C3         48.5080  -38.7240   49.9700 C.3       1 RRS         0.0657
      7 C4         49.3260  -38.1390   48.8410 C.2       1 RRS         0.1836
      8 O3         50.5570  -38.0660   48.8950 O.2       1 RRS        -0.3965
      9 N2         48.6280  -37.7230   47.8030 N.am      1 RRS        -0.2642
     10 C5         49.2790  -37.1970   46.6100 C.3       1 RRS         0.1350
     11 C6         49.4630  -35.6890   46.5510 C.2       1 RRS         0.2029
     12 O4         48.5070  -34.9340   46.7340 O.2       1 RRS        -0.3944
     13 N3         50.6620  -35.2420   46.2130 N.am      1 RRS        -0.2850
     14 C7         50.9740  -33.8060   46.0610 C.3       1 RRS         0.0310
     15 C8         52.1870  -33.6750   45.1100 C.3       1 RRS        -0.0327
     16 C9         51.9670  -34.3030   43.7170 C.3       1 RRS        -0.0512
     17 C10        51.0420  -33.5000   42.7770 C.3       1 RRS        -0.0506
     18 C11        50.8080  -34.1630   41.3970 C.3       1 RRS        -0.0269
     19 C12        49.5550  -35.0600   41.2300 C.3       1 RRS         0.0484
     20 N4         49.5110  -36.1720   42.1950 N.pl3     1 RRS        -0.2748
     21 C13        48.8780  -38.0780   51.3260 C.3       1 RRS        -0.0288
     22 C14        48.3890  -36.6150   51.4910 C.3       1 RRS        -0.0443
     23 C15        46.8610  -36.4940   51.3370 C.3       1 RRS        -0.0625
     24 C16        48.7840  -36.1460   52.8970 C.3       1 RRS        -0.0625
     25 C17        48.4360  -37.7410   45.4080 C.3       1 RRS         0.0042
     26 C18        49.0240  -37.3630   44.0980 C.2       1 RRS        -0.0416
     27 C19        48.7600  -36.1950   43.3410 C.2       1 RRS         0.0195
     28 C20        49.9890  -38.0740   43.3560 C.ar      1 RRS        -0.0212
     29 C21        50.2680  -37.3070   42.1780 C.ar      1 RRS         0.0627
     30 C22        50.6390  -39.2930   43.5890 C.ar      1 RRS        -0.0747
     31 C23        51.1970  -37.7840   41.2510 C.ar      1 RRS        -0.0441
     32 C24        51.5690  -39.7590   42.6520 C.ar      1 RRS        -0.0792
     33 C25        51.8400  -39.0080   41.4950 C.ar      1 RRS        -0.0768
     34 H1         49.5998  -41.4892   52.0304 H         1 RRS         0.2216
     35 H2         48.2868  -42.3671   53.6365 H         1 RRS         0.2490
     36 H3         48.4949  -40.6072   48.8760 H         1 RRS         0.0529
     37 H4         49.8476  -40.4397   50.0460 H         1 RRS         0.0529
     38 H5         47.4388  -38.5368   49.7920 H         1 RRS         0.0563
     39 H6         47.6296  -37.7694   47.8349 H         1 RRS         0.1884
     40 H7         50.2868  -37.6347   46.5575 H         1 RRS         0.0815
     41 H8         51.3910  -35.9076   46.0530 H         1 RRS         0.1851
     42 H9         51.2205  -33.3723   47.0414 H         1 RRS         0.0520
     43 H10        50.1075  -33.2794   45.6345 H         1 RRS         0.0520
     44 H11        53.0494  -34.1705   45.5799 H         1 RRS         0.0285
     45 H12        52.4068  -32.6056   44.9759 H         1 RRS         0.0285
     46 H13        51.5263  -35.3009   43.8584 H         1 RRS         0.0266
     47 H14        52.9476  -34.4011   43.2284 H         1 RRS         0.0266
     48 H15        51.4931  -32.5104   42.6120 H         1 RRS         0.0266
     49 H16        50.0669  -33.3807   43.2720 H         1 RRS         0.0266
     50 H17        51.6884  -34.7851   41.1782 H         1 RRS         0.0291
     51 H18        50.7353  -33.3559   40.6532 H         1 RRS         0.0291
     52 H19        49.5564  -35.4785   40.2127 H         1 RRS         0.0595
     53 H20        48.6580  -34.4389   41.3697 H         1 RRS         0.0595
     54 H21        49.9735  -38.0882   51.4249 H         1 RRS         0.0296
     55 H22        48.4316  -38.6830   52.1290 H         1 RRS         0.0296
     56 H23        48.8766  -35.9824   50.7347 H         1 RRS         0.0297
     57 H24        46.5621  -35.4427   51.4615 H         1 RRS         0.0232
     58 H25        46.3654  -37.1092   52.1025 H         1 RRS         0.0232
     59 H26        46.5644  -36.8436   50.3371 H         1 RRS         0.0232
     60 H27        49.8742  -36.2282   53.0181 H         1 RRS         0.0232
     61 H28        48.2832  -36.7751   53.6476 H         1 RRS         0.0232
     62 H29        48.4779  -35.0983   53.0336 H         1 RRS         0.0232
     63 H30        47.4185  -37.3281   45.4725 H         1 RRS         0.0397
     64 H31        48.3914  -38.8381   45.4736 H         1 RRS         0.0397
     65 H32        48.0539  -35.4184   43.6313 H         1 RRS         0.0797
     66 H33        50.4247  -39.8677   44.4828 H         1 RRS         0.0540
     67 H34        51.4189  -37.2165   40.3545 H         1 RRS         0.0541
     68 H35        52.0807  -40.7000   42.8189 H         1 RRS         0.0510
     69 H36        52.5604  -39.3817   40.7763 H         1 RRS         0.0530
@<TRIPOS>BOND
     1    1    5 1  
     2    1    3 am 
     3    1    2 2  
     4    3    4 1  
     5    5    6 1  
     6    6   21 1  
     7    6    7 1  
     8    7    9 am 
     9    7    8 2  
    10    9   10 1  
    11   10   25 1  
    12   10   11 1  
    13   11   13 am 
    14   11   12 2  
    15   13   14 1  
    16   14   15 1  
    17   15   16 1  
    18   16   17 1  
    19   17   18 1  
    20   18   19 1  
    21   19   20 1  
    22   20   29 1  
    23   20   27 1  
    24   27   26 2  
    25   26   28 1  
    26   26   25 1  
    27   28   30 ar 
    28   28   29 ar 
    29   29   31 ar 
    30   31   33 ar 
    31   33   32 ar 
    32   32   30 ar 
    33   21   22 1  
    34   22   24 1  
    35   22   23 1  
    36    3   34 1  
    37    4   35 1  
    38    5   36 1  
    39    5   37 1  
    40    6   38 1  
    41    9   39 1  
    42   10   40 1  
    43   13   41 1  
    44   14   42 1  
    45   14   43 1  
    46   15   44 1  
    47   15   45 1  
    48   16   46 1  
    49   16   47 1  
    50   17   48 1  
    51   17   49 1  
    52   18   50 1  
    53   18   51 1  
    54   19   52 1  
    55   19   53 1  
    56   21   54 1  
    57   21   55 1  
    58   22   56 1  
    59   23   57 1  
    60   23   58 1  
    61   23   59 1  
    62   24   60 1  
    63   24   61 1  
    64   24   62 1  
    65   25   63 1  
    66   25   64 1  
    67   27   65 1  
    68   30   66 1  
    69   31   67 1  
    70   32   68 1  
    71   33   69 1  
@<TRIPOS>SUBSTRUCTURE
     1 RRS         1

