### 
### Created by X-TOOL on Mon Sep 10 21:12:45 2018
### 

@<TRIPOS>MOLECULE
1mmr_ligand
   72    74     1     0     0
SMALL
GAST_HUCK


@<TRIPOS>ATOM
      1 S1         48.5470  -41.6620   50.4750 S.o2      1 SRS        -0.2217
      2 N5         46.9890  -41.6190   50.1060 N.2       1 SRS        -0.2399
      3 N6         48.4480  -42.3000   51.9330 N.2       1 SRS        -0.2399
      4 C2         49.3690  -40.1680   50.8410 C.3       1 SRS         0.0492
      5 C3         48.8240  -38.9520   50.0840 C.3       1 SRS         0.0654
      6 C4         49.5880  -38.6050   48.8100 C.2       1 SRS         0.1829
      7 O3         50.8160  -38.6870   48.7630 O.2       1 SRS        -0.3966
      8 N2         48.8960  -38.1550   47.7650 N.am      1 SRS        -0.2643
      9 C5         49.5600  -37.7740   46.5250 C.3       1 SRS         0.1350
     10 C6         49.6590  -36.2600   46.4320 C.2       1 SRS         0.2029
     11 O4         48.6950  -35.5400   46.6970 O.2       1 SRS        -0.3944
     12 N3         50.8270  -35.7590   46.0590 N.am      1 SRS        -0.2850
     13 C7         51.0670  -34.3230   45.8780 C.3       1 SRS         0.0310
     14 C8         52.3220  -34.1660   44.9690 C.3       1 SRS        -0.0327
     15 C9         52.0110  -33.5720   43.5890 C.3       1 SRS        -0.0512
     16 C10        51.5760  -34.6190   42.5870 C.3       1 SRS        -0.0506
     17 C11        50.3440  -34.1920   41.7760 C.3       1 SRS        -0.0269
     18 C12        49.6180  -35.4330   41.2040 C.3       1 SRS         0.0484
     19 N4         49.6220  -36.5760   42.1510 N.pl3     1 SRS        -0.2748
     20 C13        49.0010  -37.7940   51.0950 C.3       1 SRS        -0.0295
     21 C14        48.1640  -36.5100   51.0830 C.3       1 SRS        -0.0444
     22 C15        46.6720  -36.7350   50.7500 C.3       1 SRS        -0.0625
     23 C16        48.2860  -35.9550   52.5160 C.3       1 SRS        -0.0625
     24 C17        48.7740  -38.3430   45.3280 C.3       1 SRS         0.0042
     25 C18        49.3070  -37.8690   44.0140 C.2       1 SRS        -0.0416
     26 C19        48.9740  -36.6760   43.3370 C.2       1 SRS         0.0195
     27 C20        50.2170  -38.5150   43.1610 C.ar      1 SRS        -0.0212
     28 C21        50.3870  -37.6860   42.0150 C.ar      1 SRS         0.0627
     29 C22        50.9060  -39.7270   43.2620 C.ar      1 SRS        -0.0747
     30 C23        51.2480  -38.0770   40.9750 C.ar      1 SRS        -0.0441
     31 C24        51.7560  -40.1120   42.2220 C.ar      1 SRS        -0.0792
     32 C25        51.9280  -39.2970   41.0880 C.ar      1 SRS        -0.0768
     33 C26        49.5390  -42.6890   49.4600 C.3       1 SRS         0.0186
     34 H1         46.4981  -42.4729   49.8917 H         1 SRS         0.2056
     35 H2         49.2859  -42.4684   52.4674 H         1 SRS         0.2056
     36 H3         50.4320  -40.2867   50.5842 H         1 SRS         0.0497
     37 H4         49.2716  -39.9754   51.9196 H         1 SRS         0.0497
     38 H5         47.7637  -39.1067   49.8355 H         1 SRS         0.0553
     39 H6         47.9013  -38.0770   47.8325 H         1 SRS         0.1884
     40 H7         50.5757  -38.1963   46.5174 H         1 SRS         0.0815
     41 H8         51.5834  -36.3915   45.8923 H         1 SRS         0.1851
     42 H9         51.2483  -33.8472   46.8530 H         1 SRS         0.0520
     43 H10        50.1952  -33.8546   45.3978 H         1 SRS         0.0520
     44 H11        52.7743  -35.1585   44.8263 H         1 SRS         0.0285
     45 H12        53.0396  -33.5057   45.4780 H         1 SRS         0.0285
     46 H13        52.9152  -33.0746   43.2081 H         1 SRS         0.0266
     47 H14        51.2040  -32.8325   43.6979 H         1 SRS         0.0266
     48 H15        51.3359  -35.5456   43.1289 H         1 SRS         0.0266
     49 H16        52.4071  -34.8060   41.8911 H         1 SRS         0.0266
     50 H17        50.6630  -33.5443   40.9461 H         1 SRS         0.0291
     51 H18        49.6542  -33.6378   42.4294 H         1 SRS         0.0291
     52 H19        50.1222  -35.7410   40.2761 H         1 SRS         0.0595
     53 H20        48.5754  -35.1615   40.9821 H         1 SRS         0.0595
     54 H21        50.0471  -37.4688   50.9957 H         1 SRS         0.0295
     55 H22        48.8484  -38.2400   52.0889 H         1 SRS         0.0295
     56 H23        48.5853  -35.8007   50.3554 H         1 SRS         0.0297
     57 H24        46.1442  -35.7700   50.7617 H         1 SRS         0.0232
     58 H25        46.2262  -37.4058   51.4992 H         1 SRS         0.0232
     59 H26        46.5835  -37.1893   49.7521 H         1 SRS         0.0232
     60 H27        49.3469  -35.7932   52.7574 H         1 SRS         0.0232
     61 H28        47.8541  -36.6754   53.2263 H         1 SRS         0.0232
     62 H29        47.7442  -35.0003   52.5869 H         1 SRS         0.0232
     63 H30        47.7231  -38.0302   45.4156 H         1 SRS         0.0397
     64 H31        48.8335  -39.4410   45.3571 H         1 SRS         0.0397
     65 H32        48.2816  -35.9280   43.7205 H         1 SRS         0.0797
     66 H33        50.7827  -40.3588   44.1342 H         1 SRS         0.0540
     67 H34        51.3832  -37.4474   40.1030 H         1 SRS         0.0541
     68 H35        52.2908  -41.0524   42.2898 H         1 SRS         0.0510
     69 H36        52.5932  -39.6161   40.2938 H         1 SRS         0.0530
     70 H37        48.9990  -43.6227   49.2442 H         1 SRS         0.0433
     71 H38        50.4793  -42.9214   49.9813 H         1 SRS         0.0433
     72 H39        49.7615  -42.1678   48.5172 H         1 SRS         0.0433
@<TRIPOS>BOND
     1    1   33 1  
     2    1    4 1  
     3    1    3 2  
     4    1    2 2  
     5    4    5 1  
     6    5   20 1  
     7    5    6 1  
     8    6    8 am 
     9    6    7 2  
    10    8    9 1  
    11    9   24 1  
    12    9   10 1  
    13   10   12 am 
    14   10   11 2  
    15   12   13 1  
    16   13   14 1  
    17   14   15 1  
    18   15   16 1  
    19   16   17 1  
    20   17   18 1  
    21   18   19 1  
    22   19   28 1  
    23   19   26 1  
    24   26   25 2  
    25   25   27 1  
    26   25   24 1  
    27   27   29 ar 
    28   27   28 ar 
    29   28   30 ar 
    30   30   32 ar 
    31   32   31 ar 
    32   31   29 ar 
    33   20   21 1  
    34   21   23 1  
    35   21   22 1  
    36    2   34 1  
    37    3   35 1  
    38    4   36 1  
    39    4   37 1  
    40    5   38 1  
    41    8   39 1  
    42    9   40 1  
    43   12   41 1  
    44   13   42 1  
    45   13   43 1  
    46   14   44 1  
    47   14   45 1  
    48   15   46 1  
    49   15   47 1  
    50   16   48 1  
    51   16   49 1  
    52   17   50 1  
    53   17   51 1  
    54   18   52 1  
    55   18   53 1  
    56   20   54 1  
    57   20   55 1  
    58   21   56 1  
    59   22   57 1  
    60   22   58 1  
    61   22   59 1  
    62   23   60 1  
    63   23   61 1  
    64   23   62 1  
    65   24   63 1  
    66   24   64 1  
    67   26   65 1  
    68   29   66 1  
    69   30   67 1  
    70   31   68 1  
    71   32   69 1  
    72   33   70 1  
    73   33   71 1  
    74   33   72 1  
@<TRIPOS>SUBSTRUCTURE
     1 SRS         1

