### 
### Created by X-TOOL on Mon Sep 10 21:12:45 2018
### 

@<TRIPOS>MOLECULE
1mnc_ligand
   52    52     1     0     0
SMALL
GAST_HUCK


@<TRIPOS>ATOM
      1 C1         -1.3850   30.5520   22.4640 C.2       1 PLH         0.2013
      2 C2         -2.4560   29.6990   22.9610 C.3       1 PLH         0.0585
      3 C3         -2.8150   28.6040   21.9250 C.3       1 PLH         0.0657
      4 C4         -1.6460   27.6780   21.5070 C.3       1 PLH        -0.0288
      5 C5         -1.7950   26.6720   20.3490 C.3       1 PLH        -0.0443
      6 C6         -1.8480   27.4200   18.9930 C.3       1 PLH        -0.0625
      7 C7         -0.5380   25.8050   20.2770 C.3       1 PLH        -0.0625
      8 C8         -3.9840   27.8500   22.3950 C.2       1 PLH         0.1837
      9 C9         -6.3010   27.1380   22.0590 C.3       1 PLH         0.1402
     10 C10        -6.4320   25.7800   21.5310 C.2       1 PLH         0.2035
     11 C11        -6.9760   23.5280   22.0790 C.3       1 PLH         0.0196
     12 C12        -7.5580   27.8650   21.5540 C.3       1 PLH         0.0214
     13 C13        -7.7780   29.1720   22.1900 C.ar      1 PLH        -0.0386
     14 C14        -7.4810   30.3530   21.5530 C.ar      1 PLH        -0.0601
     15 C15        -7.6900   31.5700   22.1720 C.ar      1 PLH        -0.0686
     16 C16        -8.1990   31.5970   23.4700 C.ar      1 PLH        -0.0687
     17 C17        -8.4790   30.4520   24.1450 C.ar      1 PLH        -0.0686
     18 C18        -8.2810   29.2580   23.4830 C.ar      1 PLH        -0.0601
     19 N1         -0.1510   30.5060   22.9860 N.am      1 PLH        -0.1641
     20 N2         -5.1290   27.8230   21.6570 N.am      1 PLH        -0.2635
     21 N3         -6.7760   24.8860   22.4380 N.am      1 PLH        -0.2880
     22 O1          0.8610   31.1850   22.5810 O.3       1 PLH        -0.2717
     23 O2         -1.6560   31.3070   21.5320 O.2       1 PLH        -0.3968
     24 O3         -3.9210   27.2370   23.4660 O.2       1 PLH        -0.3965
     25 O4         -6.2180   25.5760   20.3170 O.2       1 PLH        -0.3944
     26 H1         -3.3459   30.3151   23.1571 H         1 PLH         0.0529
     27 H2         -2.1298   29.2182   23.8950 H         1 PLH         0.0529
     28 H3         -3.1208   29.1320   21.0097 H         1 PLH         0.0563
     29 H4         -1.3812   27.0897   22.3980 H         1 PLH         0.0296
     30 H5         -0.8069   28.3373   21.2402 H         1 PLH         0.0296
     31 H6         -2.6950   26.0566   20.4944 H         1 PLH         0.0297
     32 H7         -1.9543   26.6911   18.1761 H         1 PLH         0.0232
     33 H8         -0.9197   27.9935   18.8541 H         1 PLH         0.0232
     34 H9         -2.7076   28.1063   18.9861 H         1 PLH         0.0232
     35 H10        -0.4301   25.2373   21.2130 H         1 PLH         0.0232
     36 H11         0.3432   26.4478   20.1344 H         1 PLH         0.0232
     37 H12        -0.6226   25.1060   19.4319 H         1 PLH         0.0232
     38 H13        -6.3073   27.0983   23.1583 H         1 PLH         0.0823
     39 H14        -7.2554   22.9500   22.9722 H         1 PLH         0.0484
     40 H15        -6.0468   23.1203   21.6543 H         1 PLH         0.0484
     41 H16        -7.7809   23.4608   21.3323 H         1 PLH         0.0484
     42 H17        -8.4323   27.2287   21.7557 H         1 PLH         0.0474
     43 H18        -7.4587   28.0186   20.4693 H         1 PLH         0.0474
     44 H19        -7.0759   30.3290   20.5478 H         1 PLH         0.0557
     45 H20        -7.4608   32.4944   21.6542 H         1 PLH         0.0599
     46 H21        -8.3750   32.5525   23.9507 H         1 PLH         0.0559
     47 H22        -8.8442   30.4756   25.1653 H         1 PLH         0.0599
     48 H23        -8.5310   28.3378   23.9986 H         1 PLH         0.0557
     49 H24        -0.0058   29.8884   23.7590 H         1 PLH         0.2216
     50 H25        -5.1423   28.3129   20.7853 H         1 PLH         0.1884
     51 H26        -6.8972   25.1687   23.3895 H         1 PLH         0.1848
     52 H27         1.6175   30.9728   23.1149 H         1 PLH         0.2490
@<TRIPOS>BOND
     1    2    1 1  
     2    1   19 am 
     3    1   23 2  
     4    3    2 1  
     5    3    4 1  
     6    8    3 1  
     7    4    5 1  
     8    5    6 1  
     9    5    7 1  
    10   20    8 am 
    11    8   24 2  
    12    9   10 1  
    13    9   12 1  
    14    9   20 1  
    15   10   21 am 
    16   10   25 2  
    17   21   11 1  
    18   12   13 1  
    19   13   14 ar 
    20   13   18 ar 
    21   14   15 ar 
    22   15   16 ar 
    23   16   17 ar 
    24   17   18 ar 
    25   19   22 1  
    26    2   26 1  
    27    2   27 1  
    28    3   28 1  
    29    4   29 1  
    30    4   30 1  
    31    5   31 1  
    32    6   32 1  
    33    6   33 1  
    34    6   34 1  
    35    7   35 1  
    36    7   36 1  
    37    7   37 1  
    38    9   38 1  
    39   11   39 1  
    40   11   40 1  
    41   11   41 1  
    42   12   42 1  
    43   12   43 1  
    44   14   44 1  
    45   15   45 1  
    46   16   46 1  
    47   17   47 1  
    48   18   48 1  
    49   19   49 1  
    50   20   50 1  
    51   21   51 1  
    52   22   52 1  
@<TRIPOS>SUBSTRUCTURE
     1 PLH         1

