### 
### Created by X-TOOL on Mon Sep 10 21:12:44 2018
### 

@<TRIPOS>MOLECULE
1mns_ligand
   21    21     1     0     0
SMALL
GAST_HUCK


@<TRIPOS>ATOM
      1 C1         32.4760    3.3490   15.6260 C.ar      1 APG        -0.0323
      2 C2         31.2440    3.4670   16.2920 C.ar      1 APG        -0.0370
      3 C3         31.0520    4.4560   17.2520 C.ar      1 APG        -0.0161
      4 C4         32.1040    5.3350   17.5590 C.ar      1 APG        -0.0370
      5 C5         33.3280    5.2160   16.8990 C.ar      1 APG        -0.0323
      6 C6         33.5170    4.2270   15.9350 C.ar      1 APG        -0.0339
      7 C12        29.7020    4.4770   18.0160 C.3       1 APG         0.0988
      8 O17        28.6810    3.6440   17.4700 O.3       1 APG        -0.4192
      9 C13        29.1240    5.8820   18.3470 C.2       1 APG         0.0429
     10 C14        30.1620    3.8860   19.3610 C.3       1 APG        -0.0537
     11 O14        29.8350    6.7730   18.8070 O.co2     1 APG        -0.5592
     12 O15        27.9190    6.0570   18.1780 O.co2     1 APG        -0.5592
     13 H1         32.6175    2.5796   14.8756 H         1 APG         0.0699
     14 H2         30.4373    2.7825   16.0561 H         1 APG         0.0850
     15 H3         31.9651    6.1057   18.3085 H         1 APG         0.0850
     16 H4         34.1369    5.8971   17.1376 H         1 APG         0.0699
     17 H5         34.4702    4.1396   15.4262 H         1 APG         0.0857
     18 H6         28.4926    3.9179   16.5800 H         1 APG         0.1954
     19 H7         29.3046    3.8261   20.0475 H         1 APG         0.0158
     20 H8         30.9379    4.5312   19.7988 H         1 APG         0.0158
     21 H9         30.5720    2.8784   19.1977 H         1 APG         0.0158
@<TRIPOS>BOND
     1    1    2 ar 
     2    1    6 ar 
     3    2    3 ar 
     4    3    4 ar 
     5    3    7 1  
     6    4    5 ar 
     7    5    6 ar 
     8    7    8 1  
     9    7    9 1  
    10    7   10 1  
    11    9   11 ar 
    12    9   12 ar 
    13    1   13 1  
    14    2   14 1  
    15    4   15 1  
    16    5   16 1  
    17    6   17 1  
    18    8   18 1  
    19   10   19 1  
    20   10   20 1  
    21   10   21 1  
@<TRIPOS>SUBSTRUCTURE
     1 APG         1

