### 
### Created by X-TOOL on Mon Sep 10 21:12:49 2018
### 

@<TRIPOS>MOLECULE
1mqd_ligand
   20    20     1     0     0
SMALL
GAST_HUCK


@<TRIPOS>ATOM
      1 O1         72.8180   43.7880   43.0640 O.3       1 SHI        -0.1846
      2 N2         74.0130   43.5010   42.3310 N.am      1 SHI        -0.1371
      3 C5         72.5970   45.1230   42.9880 C.2       1 SHI         0.1078
      4 C4         73.6060   45.7530   42.3780 C.2       1 SHI         0.0441
      5 C3         74.4540   44.6770   41.8760 C.2       1 SHI         0.2010
      6 O31        75.4660   44.7740   41.1220 O.2       1 SHI        -0.4160
      7 C41        73.8890   47.2110   42.1980 C.3       1 SHI         0.0286
      8 C42        74.7350   47.8530   43.3240 C.3       1 SHI         0.0326
      9 N1         74.0510   47.6890   44.6610 N.4       1 SHI         0.2336
     10 C43        74.9640   49.3460   42.9290 C.2       1 SHI         0.0857
     11 O41        74.7360   50.1900   43.8440 O.co2     1 SHI        -0.5642
     12 O42        75.3660   49.6150   41.7590 O.co2     1 SHI        -0.5642
     13 H1         74.4319   42.6042   42.1886 H         1 SHI         0.2327
     14 H2         71.7089   45.6201   43.3753 H         1 SHI         0.1080
     15 H3         72.9272   47.7424   42.1476 H         1 SHI         0.0424
     16 H4         74.4293   47.3398   41.2486 H         1 SHI         0.0424
     17 H5         75.7110   47.3484   43.3769 H         1 SHI         0.1039
     18 H6         74.6152   48.1123   45.3812 H         1 SHI         0.2011
     19 H7         73.9329   46.7079   44.8599 H         1 SHI         0.2011
     20 H8         73.1487   48.1374   44.6341 H         1 SHI         0.2011
@<TRIPOS>BOND
     1    1    2 1  
     2    1    3 1  
     3    2    5 am 
     4    3    4 2  
     5    4    5 1  
     6    4    7 1  
     7    5    6 2  
     8    7    8 1  
     9    8    9 1  
    10    8   10 1  
    11   10   11 ar 
    12   10   12 ar 
    13    2   13 1  
    14    3   14 1  
    15    7   15 1  
    16    7   16 1  
    17    8   17 1  
    18    9   18 1  
    19    9   19 1  
    20    9   20 1  
@<TRIPOS>SUBSTRUCTURE
     1 SHI         1

