### 
### Created by X-TOOL on Mon Sep 10 21:12:50 2018
### 

@<TRIPOS>MOLECULE
1mqg_ligand
   23    23     1     0     0
SMALL
GAST_HUCK


@<TRIPOS>ATOM
      1 N1         18.7120    3.0980   21.0510 N.am      1 IWD        -0.1771
      2 C2         17.8410    3.7760   20.1570 C.2       1 IWD         0.3335
      3 O2         18.1940    4.3340   19.1470 O.2       1 IWD        -0.3803
      4 N3         16.4840    3.7430   20.5520 N.am      1 IWD        -0.1861
      5 C4         15.9350    3.1450   21.6550 C.2       1 IWD         0.1904
      6 O4         14.7440    3.1970   21.9020 O.2       1 IWD        -0.4130
      7 C5         16.9670    2.4460   22.5360 C.2       1 IWD         0.0750
      8 I5         16.3750    1.4200   24.2420 I         1 IWD        -0.0847
      9 C6         18.2580    2.4620   22.1520 C.2       1 IWD         0.0710
     10 C7         20.1530    2.9810   20.7490 C.3       1 IWD         0.1223
     11 C8         20.4560    2.0730   19.5690 C.3       1 IWD         0.0569
     12 N8         20.1600    0.6510   19.9600 N.4       1 IWD         0.2347
     13 C9         21.8790    2.1940   18.9970 C.2       1 IWD         0.0872
     14 O91        22.5640    1.1890   18.8910 O.co2     1 IWD        -0.5642
     15 O92        22.2350    3.3980   18.7140 O.co2     1 IWD        -0.5642
     16 H1         15.8427    4.2171   19.9487 H         1 IWD         0.2259
     17 H2         18.9806    1.9287   22.7680 H         1 IWD         0.1247
     18 H3         20.6628    2.5789   21.6369 H         1 IWD         0.0697
     19 H4         20.5438    3.9845   20.5248 H         1 IWD         0.0697
     20 H5         19.7651    2.3535   18.7603 H         1 IWD         0.1053
     21 H6         20.3582    0.0406   19.1827 H         1 IWD         0.2011
     22 H7         19.1879    0.5675   20.2133 H         1 IWD         0.2011
     23 H8         20.7355    0.3919   20.7459 H         1 IWD         0.2011
@<TRIPOS>BOND
     1    1    2 am 
     2    1    9 am 
     3    1   10 1  
     4    2    3 2  
     5    2    4 am 
     6    4    5 am 
     7    5    6 2  
     8    5    7 1  
     9    7    8 1  
    10    7    9 2  
    11   10   11 1  
    12   11   12 1  
    13   11   13 1  
    14   13   14 ar 
    15   13   15 ar 
    16    4   16 1  
    17    9   17 1  
    18   10   18 1  
    19   10   19 1  
    20   11   20 1  
    21   12   21 1  
    22   12   22 1  
    23   12   23 1  
@<TRIPOS>SUBSTRUCTURE
     1 IWD         1

