### 
### Created by X-TOOL on Mon Sep 10 21:12:50 2018
### 

@<TRIPOS>MOLECULE
1mqh_ligand
   23    23     1     0     0
SMALL
GAST_HUCK


@<TRIPOS>ATOM
      1 N1         15.7260   43.9930   15.3850 N.am      1 BWD        -0.1766
      2 C2         15.4890   45.2560   14.7790 C.2       1 BWD         0.3342
      3 O2         15.3010   46.2820   15.3870 O.2       1 BWD        -0.3799
      4 N3         15.4900   45.2160   13.3620 N.am      1 BWD        -0.1864
      5 C4         15.6990   44.1270   12.5440 C.2       1 BWD         0.1888
      6 O4         15.6630   44.1960   11.3240 O.2       1 BWD        -0.4134
      7 C5         15.9490   42.8430   13.3120 C.2       1 BWD         0.0774
      8 BR5        16.3090   41.2560   12.3810 Br        1 BWD        -0.0876
      9 C6         15.9640   42.8790   14.6610 C.2       1 BWD         0.0706
     10 C7         15.8190   43.8800   16.8520 C.3       1 BWD         0.1227
     11 C8         17.0620   44.5400   17.4280 C.3       1 BWD         0.0570
     12 N8         18.2470   43.6520   17.1660 N.4       1 BWD         0.2347
     13 C9         16.9770   44.9090   18.9130 C.2       1 BWD         0.0872
     14 O91        17.8250   44.4850   19.6570 O.co2     1 BWD        -0.5642
     15 O92        15.9590   45.6300   19.2350 O.co2     1 BWD        -0.5642
     16 H1         15.3178   46.0854   12.8989 H         1 BWD         0.2259
     17 H2         16.1807   41.9558   15.1964 H         1 BWD         0.1254
     18 H3         15.8341   42.8132   17.1199 H         1 BWD         0.0698
     19 H4         14.9328   44.3570   17.2959 H         1 BWD         0.0698
     20 H5         17.2136   45.4799   16.8770 H         1 BWD         0.1053
     21 H6         19.0777   44.0800   17.5440 H         1 BWD         0.2011
     22 H7         18.3576   43.5237   16.1723 H         1 BWD         0.2011
     23 H8         18.1002   42.7571   17.6061 H         1 BWD         0.2011
@<TRIPOS>BOND
     1    1    2 am 
     2    1    9 am 
     3    1   10 1  
     4    2    3 2  
     5    2    4 am 
     6    4    5 am 
     7    5    6 2  
     8    5    7 1  
     9    7    8 1  
    10    7    9 2  
    11   10   11 1  
    12   11   12 1  
    13   11   13 1  
    14   13   14 ar 
    15   13   15 ar 
    16    4   16 1  
    17    9   17 1  
    18   10   18 1  
    19   10   19 1  
    20   11   20 1  
    21   12   21 1  
    22   12   22 1  
    23   12   23 1  
@<TRIPOS>SUBSTRUCTURE
     1 BWD         1

