### 
### Created by X-TOOL on Mon Sep 10 21:12:50 2018
### 

@<TRIPOS>MOLECULE
1mqi_ligand
   23    23     1     0     0
SMALL
GAST_HUCK


@<TRIPOS>ATOM
      1 N1         16.3460    1.7690   15.4420 N.am      1 FWD        -0.1864
      2 C2         16.4520    0.4720   14.8800 C.2       1 FWD         0.3276
      3 O2         16.4860   -0.5540   15.5220 O.2       1 FWD        -0.3831
      4 N3         16.5110    0.4660   13.4730 N.am      1 FWD        -0.1843
      5 C4         16.4800    1.5440   12.6260 C.2       1 FWD         0.2212
      6 O4         16.5550    1.4430   11.4210 O.2       1 FWD        -0.4071
      7 C5         16.3720    2.8640   13.3280 C.2       1 FWD         0.1930
      8 F5         16.3160    3.9720   12.5750 F         1 FWD        -0.2165
      9 C6         16.2890    2.8890   14.6780 C.2       1 FWD         0.0856
     10 C7         16.2070    1.8990   16.8970 C.3       1 FWD         0.1179
     11 C8         14.8860    1.3810   17.4490 C.3       1 FWD         0.0561
     12 N8         13.7800    2.3630   17.1840 N.4       1 FWD         0.2346
     13 C9         14.9390    1.0120   18.9290 C.2       1 FWD         0.0872
     14 O91        14.1300    1.5030   19.6780 O.co2     1 FWD        -0.5642
     15 O92        15.9070    0.2240   19.2430 O.co2     1 FWD        -0.5642
     16 H1         16.5843   -0.4322   13.0395 H         1 FWD         0.2260
     17 H2         16.1711    3.8513   15.1740 H         1 FWD         0.1106
     18 H3         16.2953    2.9640   17.1577 H         1 FWD         0.0687
     19 H4         17.0235    1.3360   17.3728 H         1 FWD         0.0687
     20 H5         14.6488    0.4588   16.8983 H         1 FWD         0.1052
     21 H6         12.9150    2.0032   17.5560 H         1 FWD         0.2011
     22 H7         13.6859    2.5030   16.1902 H         1 FWD         0.2011
     23 H8         13.9971    3.2415   17.6280 H         1 FWD         0.2011
@<TRIPOS>BOND
     1    1    2 am 
     2    1    9 am 
     3    1   10 1  
     4    2    3 2  
     5    2    4 am 
     6    4    5 am 
     7    5    6 2  
     8    5    7 1  
     9    7    8 1  
    10    7    9 2  
    11   10   11 1  
    12   11   12 1  
    13   11   13 1  
    14   13   14 ar 
    15   13   15 ar 
    16    4   16 1  
    17    9   17 1  
    18   10   18 1  
    19   10   19 1  
    20   11   20 1  
    21   12   21 1  
    22   12   22 1  
    23   12   23 1  
@<TRIPOS>SUBSTRUCTURE
     1 FWD         1

