### 
### Created by X-TOOL on Mon Sep 10 21:12:50 2018
### 

@<TRIPOS>MOLECULE
1mqj_ligand
   23    23     1     0     0
SMALL
GAST_HUCK


@<TRIPOS>ATOM
      1 N1         16.2660    1.7120   15.4300 N.am      1 HWD        -0.1822
      2 C2         16.3910    0.4090   14.8630 C.2       1 HWD         0.3308
      3 O2         16.4680   -0.6340   15.5440 O.2       1 HWD        -0.3815
      4 N3         16.4210    0.3860   13.4680 N.am      1 HWD        -0.1866
      5 C4         16.3400    1.5070   12.6140 C.2       1 HWD         0.1822
      6 O4         16.3810    1.3700   11.4040 O.2       1 HWD        -0.4124
      7 C5         16.2110    2.7990   13.2910 C.2       1 HWD         0.0061
      8 C6         16.1540    2.8610   14.6430 C.2       1 HWD         0.0566
      9 C7         16.1540    1.8670   16.8930 C.3       1 HWD         0.1204
     10 C8         14.8540    1.3310   17.4900 C.3       1 HWD         0.0566
     11 N8         13.7290    2.3010   17.2460 N.4       1 HWD         0.2347
     12 C9         14.9480    0.9720   18.9800 C.2       1 HWD         0.0872
     13 O91        14.1470    1.4500   19.7430 O.co2     1 HWD        -0.5642
     14 O92        15.9380    0.2100   19.2820 O.co2     1 HWD        -0.5642
     15 H1         16.5082   -0.5097   13.0320 H         1 HWD         0.2259
     16 H2         16.1606    3.7151   12.7043 H         1 HWD         0.0258
     17 H3         16.0180    3.8271   15.1268 H         1 HWD         0.1177
     18 H4         16.2251    2.9385   17.1313 H         1 HWD         0.0692
     19 H5         16.9931    1.3309   17.3604 H         1 HWD         0.0692
     20 H6         14.6143    0.4015   16.9529 H         1 HWD         0.1052
     21 H7         12.8781    1.9358   17.6444 H         1 HWD         0.2011
     22 H8         13.6067    2.4311   16.2540 H         1 HWD         0.2011
     23 H9         13.9488    3.1856   17.6763 H         1 HWD         0.2011
@<TRIPOS>BOND
     1    1    2 am 
     2    1    8 am 
     3    1    9 1  
     4    2    3 2  
     5    2    4 am 
     6    4    5 am 
     7    5    6 2  
     8    5    7 1  
     9    7    8 2  
    10    9   10 1  
    11   10   11 1  
    12   10   12 1  
    13   12   13 ar 
    14   12   14 ar 
    15    4   15 1  
    16    7   16 1  
    17    8   17 1  
    18    9   18 1  
    19    9   19 1  
    20   10   20 1  
    21   11   21 1  
    22   11   22 1  
    23   11   23 1  
@<TRIPOS>SUBSTRUCTURE
     1 HWD         1

