### 
### Created by X-TOOL on Mon Sep 10 21:12:50 2018
### 

@<TRIPOS>MOLECULE
1mrw_ligand
   74    76     1     0     0
SMALL
GAST_HUCK


@<TRIPOS>ATOM
      1 C1         11.1140   17.7090   19.0530 C.ar      1 K57        -0.0355
      2 C2         11.1960   18.3940   17.8240 C.ar      1 K57        -0.0720
      3 C3         12.2820   19.2640   17.5690 C.ar      1 K57        -0.0597
      4 C4         13.3080   19.4670   18.5420 C.ar      1 K57         0.0427
      5 C5         13.2250   18.7660   19.8070 C.ar      1 K57         0.0036
      6 C6         12.1150   17.8910   20.0360 C.ar      1 K57         0.0948
      7 C7         14.2760   18.9230   20.9010 C.3       1 K57        -0.0293
      8 C8         14.4410   20.3890   18.2340 C.2       1 K57         0.1980
      9 N9         14.1020   21.6370   17.8070 N.am      1 K57        -0.2778
     10 C10        15.1130   22.5980   17.3450 C.3       1 K57         0.0938
     11 C11        15.1250   22.8580   15.8140 C.3       1 K57         0.0085
     12 C12        15.0360   23.8360   18.2440 C.3       1 K57         0.1683
     13 C13        16.2980   24.7030   18.4790 C.2       1 K57         0.2129
     14 N14        17.4370   24.0970   19.0340 N.am      1 K57        -0.2383
     15 C15        18.7480   24.7560   18.8690 C.3       1 K57         0.1485
     16 C16        19.7330   24.1200   19.9070 C.3       1 K57         0.0532
     17 S17        19.2360   22.4060   20.0420 S.3       1 K57        -0.1252
     18 C18        17.5020   22.7580   19.6830 C.3       1 K57         0.0831
     19 C19        14.1780   22.0340   14.9940 C.ar      1 K57        -0.0406
     20 C20        14.7280   21.0530   14.1260 C.ar      1 K57        -0.0603
     21 C21        13.8870   20.2300   13.3280 C.ar      1 K57        -0.0686
     22 C22        12.4840   20.3920   13.4020 C.ar      1 K57        -0.0687
     23 C23        11.9240   21.3750   14.2680 C.ar      1 K57        -0.0686
     24 C24        12.7660   22.1920   15.0600 C.ar      1 K57        -0.0603
     25 O25        13.8140   24.2040   18.7960 O.3       1 K57        -0.3689
     26 O26        16.3070   25.8310   18.0080 O.2       1 K57        -0.3938
     27 C27        19.6190   24.7670   21.3030 C.3       1 K57        -0.0463
     28 C28        21.2030   24.1520   19.4270 C.3       1 K57        -0.0463
     29 C29        19.1420   24.5590   17.3600 C.2       1 K57         0.2037
     30 N30        19.7290   25.6700   16.7930 N.am      1 K57        -0.2797
     31 C31        20.2020   25.8120   15.3920 C.3       1 K57         0.0447
     32 O32        18.9120   23.4900   16.7830 O.2       1 K57        -0.3945
     33 O33        12.0080   17.2060   21.2310 O.3       1 K57        -0.3358
     34 O34        15.6250   20.0630   18.3350 O.2       1 K57        -0.3887
     35 C35        20.7570   27.2410   15.2750 C.3       1 K57        -0.0396
     36 C67        19.0310   25.6220   14.4000 C.3       1 K57        -0.0396
     37 C71        21.3410   24.8010   15.0940 C.3       1 K57        -0.0396
     38 H1         10.2821   17.0412   19.2455 H         1 K57         0.0556
     39 H2         10.4263   18.2541   17.0736 H         1 K57         0.0543
     40 H3         12.3365   19.7850   16.6200 H         1 K57         0.0556
     41 H4         15.0529   19.6255   20.5649 H         1 K57         0.0382
     42 H5         14.7329   17.9452   21.1136 H         1 K57         0.0382
     43 H6         13.8003   19.3116   21.8135 H         1 K57         0.0382
     44 H7         13.1390   21.9066   17.8079 H         1 K57         0.1850
     45 H8         16.0895   22.1364   17.5531 H         1 K57         0.0630
     46 H9         16.1436   22.6613   15.4484 H         1 K57         0.0451
     47 H10        14.8752   23.9169   15.6516 H         1 K57         0.0451
     48 H11        15.2715   23.2288   19.1305 H         1 K57         0.0863
     49 H12        18.6663   25.8328   19.0781 H         1 K57         0.0816
     50 H13        17.0970   21.9927   19.0045 H         1 K57         0.0640
     51 H14        16.9202   22.7654   20.6165 H         1 K57         0.0640
     52 H15        15.8036   20.9303   14.0714 H         1 K57         0.0557
     53 H16        14.3174   19.4849   12.6687 H         1 K57         0.0599
     54 H17        11.8342   19.7678   12.7994 H         1 K57         0.0559
     55 H18        10.8483   21.4978   14.3206 H         1 K57         0.0599
     56 H19        12.3345   22.9384   15.7171 H         1 K57         0.0557
     57 H20        13.8923   24.2370   19.7422 H         1 K57         0.2134
     58 H21        20.3299   24.2845   21.9899 H         1 K57         0.0245
     59 H22        18.5954   24.6379   21.6845 H         1 K57         0.0245
     60 H23        19.8505   25.8399   21.2299 H         1 K57         0.0245
     61 H24        21.8483   23.6945   20.1914 H         1 K57         0.0245
     62 H25        21.5123   25.1947   19.2622 H         1 K57         0.0245
     63 H26        21.2938   23.5895   18.4861 H         1 K57         0.0245
     64 H27        19.8492   26.4647   17.3880 H         1 K57         0.1857
     65 H28        11.2209   16.6741   21.2205 H         1 K57         0.2456
     66 H29        21.1256   27.4086   14.2522 H         1 K57         0.0254
     67 H30        21.5835   27.3730   15.9888 H         1 K57         0.0254
     68 H31        19.9591   27.9639   15.5002 H         1 K57         0.0254
     69 H32        19.4017   25.7308   13.3701 H         1 K57         0.0254
     70 H33        18.2592   26.3814   14.5940 H         1 K57         0.0254
     71 H34        18.5993   24.6187   14.5302 H         1 K57         0.0254
     72 H35        21.6762   24.9226   14.0534 H         1 K57         0.0254
     73 H36        20.9698   23.7762   15.2422 H         1 K57         0.0254
     74 H37        22.1844   24.9876   15.7751 H         1 K57         0.0254
@<TRIPOS>BOND
     1    1    2 ar 
     2    1    6 ar 
     3    2    3 ar 
     4    3    4 ar 
     5    4    5 ar 
     6    4    8 1  
     7    5    6 ar 
     8    5    7 1  
     9    6   33 1  
    10    8    9 am 
    11    8   34 2  
    12    9   10 1  
    13   10   11 1  
    14   10   12 1  
    15   11   19 1  
    16   12   13 1  
    17   12   25 1  
    18   13   14 am 
    19   13   26 2  
    20   14   15 1  
    21   14   18 1  
    22   15   16 1  
    23   15   29 1  
    24   16   17 1  
    25   16   27 1  
    26   16   28 1  
    27   17   18 1  
    28   19   20 ar 
    29   19   24 ar 
    30   20   21 ar 
    31   21   22 ar 
    32   22   23 ar 
    33   23   24 ar 
    34   29   30 am 
    35   29   32 2  
    36   30   31 1  
    37   31   35 1  
    38   31   36 1  
    39   31   37 1  
    40    1   38 1  
    41    2   39 1  
    42    3   40 1  
    43    7   41 1  
    44    7   42 1  
    45    7   43 1  
    46    9   44 1  
    47   10   45 1  
    48   11   46 1  
    49   11   47 1  
    50   12   48 1  
    51   15   49 1  
    52   18   50 1  
    53   18   51 1  
    54   20   52 1  
    55   21   53 1  
    56   22   54 1  
    57   23   55 1  
    58   24   56 1  
    59   25   57 1  
    60   27   58 1  
    61   27   59 1  
    62   27   60 1  
    63   28   61 1  
    64   28   62 1  
    65   28   63 1  
    66   30   64 1  
    67   33   65 1  
    68   35   66 1  
    69   35   67 1  
    70   35   68 1  
    71   36   69 1  
    72   36   70 1  
    73   36   71 1  
    74   37   72 1  
    75   37   73 1  
    76   37   74 1  
@<TRIPOS>SUBSTRUCTURE
     1 K57         1

