### 
### Created by X-TOOL on Mon Sep 10 21:12:50 2018
### 

@<TRIPOS>MOLECULE
1mrx_ligand
   74    76     1     0     0
SMALL
GAST_HUCK


@<TRIPOS>ATOM
      1 C1         10.8540   17.8030   18.9150 C.ar      1 K57        -0.0355
      2 C2         10.8460   18.4860   17.6850 C.ar      1 K57        -0.0720
      3 C3         11.9030   19.3690   17.3700 C.ar      1 K57        -0.0597
      4 C4         12.9890   19.5810   18.2850 C.ar      1 K57         0.0427
      5 C5         12.9970   18.8820   19.5480 C.ar      1 K57         0.0036
      6 C6         11.9130   17.9960   19.8320 C.ar      1 K57         0.0948
      7 C7         14.1020   19.0350   20.5900 C.3       1 K57        -0.0293
      8 C8         14.0800   20.5240   17.8970 C.2       1 K57         0.1980
      9 N9         13.7210   21.7790   17.5260 N.am      1 K57        -0.2778
     10 C10        14.6400   22.8260   17.0820 C.3       1 K57         0.0938
     11 C11        14.3450   23.5460   15.7420 C.3       1 K57         0.0085
     12 C12        14.7910   24.0120   18.0640 C.3       1 K57         0.1683
     13 C13        16.1510   24.7410   18.2180 C.2       1 K57         0.2129
     14 N14        17.2660   24.0940   18.7350 N.am      1 K57        -0.2383
     15 C15        18.5740   24.7910   18.6420 C.3       1 K57         0.1485
     16 C16        19.5090   24.1940   19.7340 C.3       1 K57         0.0532
     17 S17        19.0750   22.4510   19.8340 S.3       1 K57        -0.1252
     18 C18        17.3560   22.7620   19.3800 C.3       1 K57         0.0831
     19 C19        14.1540   22.5370   14.6290 C.ar      1 K57        -0.0406
     20 C20        15.2790   22.3390   13.7900 C.ar      1 K57        -0.0603
     21 C21        15.2400   21.4220   12.7100 C.ar      1 K57        -0.0686
     22 C22        14.0490   20.6920   12.4740 C.ar      1 K57        -0.0687
     23 C23        12.9140   20.8770   13.3040 C.ar      1 K57        -0.0686
     24 C24        12.9640   21.8000   14.3820 C.ar      1 K57        -0.0603
     25 O25        13.6730   24.4750   18.7440 O.3       1 K57        -0.3689
     26 O26        16.1730   25.8630   17.7130 O.2       1 K57        -0.3938
     27 C27        19.2230   24.8250   21.1090 C.3       1 K57        -0.0463
     28 C28        21.0220   24.3140   19.4160 C.3       1 K57        -0.0463
     29 C29        19.0320   24.6000   17.1560 C.2       1 K57         0.2037
     30 N30        19.5710   25.7230   16.5970 N.am      1 K57        -0.2797
     31 C31        20.0920   25.8960   15.2210 C.3       1 K57         0.0447
     32 O32        18.8890   23.5170   16.5900 O.2       1 K57        -0.3945
     33 O33        11.8860   17.3100   21.0240 O.3       1 K57        -0.3358
     34 O34        15.2680   20.1750   17.8920 O.2       1 K57        -0.3887
     35 C35        20.5710   27.3550   15.1520 C.3       1 K57        -0.0396
     36 C67        18.9750   25.6600   14.1830 C.3       1 K57        -0.0396
     37 C71        21.2910   24.9600   14.9330 C.3       1 K57        -0.0396
     38 H1         10.0444   17.1255   19.1609 H         1 K57         0.0556
     39 H2         10.0337   18.3356   16.9832 H         1 K57         0.0543
     40 H3         11.8939   19.8949   16.4222 H         1 K57         0.0556
     41 H4         14.8561   19.7468   20.2229 H         1 K57         0.0382
     42 H5         14.5758   18.0584   20.7682 H         1 K57         0.0382
     43 H6         13.6705   19.4101   21.5297 H         1 K57         0.0382
     44 H7         12.7478   22.0065   17.5590 H         1 K57         0.1850
     45 H8         15.6172   22.3305   16.9846 H         1 K57         0.0630
     46 H9         15.1891   24.2055   15.4918 H         1 K57         0.0451
     47 H10        13.4293   24.1463   15.8475 H         1 K57         0.0451
     48 H11        15.0410   23.3282   18.8885 H         1 K57         0.0863
     49 H12        18.4539   25.8662   18.8406 H         1 K57         0.0816
     50 H13        17.0130   21.9874   18.6783 H         1 K57         0.0640
     51 H14        16.7265   22.7446   20.2819 H         1 K57         0.0640
     52 H15        16.1873   22.9000   13.9780 H         1 K57         0.0557
     53 H16        16.1072   21.2815   12.0750 H         1 K57         0.0599
     54 H17        14.0049   19.9863   11.6523 H         1 K57         0.0559
     55 H18        12.0075   20.3133   13.1153 H         1 K57         0.0599
     56 H19        12.0960   21.9423   15.0155 H         1 K57         0.0557
     57 H20        13.8408   24.4532   19.6788 H         1 K57         0.2134
     58 H21        19.8958   24.3865   21.8607 H         1 K57         0.0245
     59 H22        18.1785   24.6284   21.3926 H         1 K57         0.0245
     60 H23        19.3904   25.9109   21.0561 H         1 K57         0.0245
     61 H24        21.6053   23.8694   20.2358 H         1 K57         0.0245
     62 H25        21.2910   25.3751   19.3081 H         1 K57         0.0245
     63 H26        21.2430   23.7826   18.4786 H         1 K57         0.0245
     64 H27        19.6201   26.5274   17.1890 H         1 K57         0.1857
     65 H28        11.1066   16.7680   21.0586 H         1 K57         0.2456
     66 H29        20.9754   27.5611   14.1500 H         1 K57         0.0254
     67 H30        21.3558   27.5193   15.9050 H         1 K57         0.0254
     68 H31        19.7246   28.0287   15.3515 H         1 K57         0.0254
     69 H32        19.3820   25.7931   13.1698 H         1 K57         0.0254
     70 H33        18.1616   26.3817   14.3491 H         1 K57         0.0254
     71 H34        18.5851   24.6370   14.2901 H         1 K57         0.0254
     72 H35        21.6438   25.1222   13.9038 H         1 K57         0.0254
     73 H36        20.9756   23.9129   15.0516 H         1 K57         0.0254
     74 H37        22.1056   25.1798   15.6388 H         1 K57         0.0254
@<TRIPOS>BOND
     1    1    2 ar 
     2    1    6 ar 
     3    2    3 ar 
     4    3    4 ar 
     5    4    5 ar 
     6    4    8 1  
     7    5    6 ar 
     8    5    7 1  
     9    6   33 1  
    10    8    9 am 
    11    8   34 2  
    12    9   10 1  
    13   10   11 1  
    14   10   12 1  
    15   11   19 1  
    16   12   13 1  
    17   12   25 1  
    18   13   14 am 
    19   13   26 2  
    20   14   15 1  
    21   14   18 1  
    22   15   16 1  
    23   15   29 1  
    24   16   17 1  
    25   16   27 1  
    26   16   28 1  
    27   17   18 1  
    28   19   20 ar 
    29   19   24 ar 
    30   20   21 ar 
    31   21   22 ar 
    32   22   23 ar 
    33   23   24 ar 
    34   29   30 am 
    35   29   32 2  
    36   30   31 1  
    37   31   35 1  
    38   31   36 1  
    39   31   37 1  
    40    1   38 1  
    41    2   39 1  
    42    3   40 1  
    43    7   41 1  
    44    7   42 1  
    45    7   43 1  
    46    9   44 1  
    47   10   45 1  
    48   11   46 1  
    49   11   47 1  
    50   12   48 1  
    51   15   49 1  
    52   18   50 1  
    53   18   51 1  
    54   20   52 1  
    55   21   53 1  
    56   22   54 1  
    57   23   55 1  
    58   24   56 1  
    59   25   57 1  
    60   27   58 1  
    61   27   59 1  
    62   27   60 1  
    63   28   61 1  
    64   28   62 1  
    65   28   63 1  
    66   30   64 1  
    67   33   65 1  
    68   35   66 1  
    69   35   67 1  
    70   35   68 1  
    71   36   69 1  
    72   36   70 1  
    73   36   71 1  
    74   37   72 1  
    75   37   73 1  
    76   37   74 1  
@<TRIPOS>SUBSTRUCTURE
     1 K57         1

