### 
### Created by X-TOOL on Mon Sep 10 21:12:50 2018
### 

@<TRIPOS>MOLECULE
1ms0_ligand
   38    38     1     0     0
SMALL
GAST_HUCK


@<TRIPOS>ATOM
      1 C1         34.6050  -15.8460    9.5840 C.2       1 DAN         0.0637
      2 C2         33.7160  -16.1120   10.6570 C.3       1 DAN         0.1137
      3 C3         34.2630  -16.3080   12.0560 C.3       1 DAN         0.0137
      4 C4         33.2400  -16.9410   12.9940 C.3       1 DAN         0.0845
      5 C5         32.3650  -17.8500   12.1730 C.3       1 DAN         0.0967
      6 C6         31.6040  -16.9760   11.1970 C.3       1 DAN         0.1147
      7 C7         30.6760  -17.8780   10.3660 C.3       1 DAN         0.1116
      8 C8         29.6120  -17.0800    9.6470 C.3       1 DAN         0.1065
      9 C9         28.7460  -18.0500    8.8490 C.3       1 DAN         0.0727
     10 C10        31.2740  -19.9490   12.7040 C.2       1 DAN         0.1733
     11 C11        32.3290  -20.5910   11.8400 C.3       1 DAN         0.0257
     12 N5         31.4590  -18.6500   12.9840 N.am      1 DAN        -0.2790
     13 O1A        34.8930  -16.8120    8.5800 O.co2     1 DAN        -0.5663
     14 O1B        35.2100  -14.6830    9.4650 O.co2     1 DAN        -0.5663
     15 O4         33.8740  -17.7210   13.9740 O.3       1 DAN        -0.3892
     16 O6         32.4720  -16.1560   10.4120 O.3       1 DAN        -0.3543
     17 O7         31.3590  -18.6980    9.4310 O.3       1 DAN        -0.3865
     18 O8         28.8660  -16.3770   10.6120 O.3       1 DAN        -0.3869
     19 O9         29.3810  -18.3560    7.6270 O.3       1 DAN        -0.3924
     20 O10        30.1670  -20.6860   13.1810 O.2       1 DAN        -0.3974
     21 H1         33.7962  -17.1937   10.4738 H         1 DAN         0.0767
     22 H2         34.5563  -15.3285   12.4616 H         1 DAN         0.0334
     23 H3         35.1459  -16.9620   12.0023 H         1 DAN         0.0334
     24 H4         32.6368  -16.1563   13.4739 H         1 DAN         0.0619
     25 H5         33.0085  -18.5401   11.6076 H         1 DAN         0.0608
     26 H6         30.9674  -16.2946   11.7805 H         1 DAN         0.0648
     27 H7         30.1674  -18.5475   11.0753 H         1 DAN         0.0647
     28 H8         30.0810  -16.3623    8.9579 H         1 DAN         0.0643
     29 H9         27.7685  -17.5875    8.6478 H         1 DAN         0.0584
     30 H10        28.6023  -18.9740    9.4282 H         1 DAN         0.0584
     31 H11        32.0755  -21.6489   11.6770 H         1 DAN         0.0467
     32 H12        33.3058  -20.5210   12.3410 H         1 DAN         0.0467
     33 H13        32.3756  -20.0717   10.8714 H         1 DAN         0.0467
     34 H14        30.9736  -18.2307   13.7512 H         1 DAN         0.1856
     35 H15        34.3992  -18.3913   13.5528 H         1 DAN         0.2099
     36 H16        30.7404  -19.2900    9.0194 H         1 DAN         0.2100
     37 H17        29.4397  -15.7860   11.0853 H         1 DAN         0.2100
     38 H18        30.2250  -18.7556    7.8014 H         1 DAN         0.2095
@<TRIPOS>BOND
     1    2    1 1  
     2    1   13 ar 
     3    1   14 ar 
     4    3    2 1  
     5   16    2 1  
     6    4    3 1  
     7    5    4 1  
     8    4   15 1  
     9    5    6 1  
    10   12    5 1  
    11    6    7 1  
    12    6   16 1  
    13    7    8 1  
    14    7   17 1  
    15    8    9 1  
    16    8   18 1  
    17    9   19 1  
    18   10   11 1  
    19   10   12 am 
    20   10   20 2  
    21    2   21 1  
    22    3   22 1  
    23    3   23 1  
    24    4   24 1  
    25    5   25 1  
    26    6   26 1  
    27    7   27 1  
    28    8   28 1  
    29    9   29 1  
    30    9   30 1  
    31   11   31 1  
    32   11   32 1  
    33   11   33 1  
    34   12   34 1  
    35   15   35 1  
    36   17   36 1  
    37   18   37 1  
    38   19   38 1  
@<TRIPOS>SUBSTRUCTURE
     1 DAN         1

