### 
### Created by X-TOOL on Mon Sep 10 21:12:50 2018
### 

@<TRIPOS>MOLECULE
1ms7_ligand
   20    20     1     0     0
SMALL
GAST_HUCK


@<TRIPOS>ATOM
      1 O1         11.1980   24.9750    8.4310 O.3       1 SHI        -0.1846
      2 N2         11.4760   26.3750    8.5270 N.am      1 SHI        -0.1371
      3 C5         11.2160   24.6430    7.1180 C.2       1 SHI         0.1078
      4 C4         11.4710   25.7030    6.3330 C.2       1 SHI         0.0441
      5 C3         11.6730   26.7960    7.2770 C.2       1 SHI         0.2010
      6 O31        11.9940   27.9860    7.0250 O.2       1 SHI        -0.4160
      7 C41        11.5530   25.8350    4.8320 C.3       1 SHI         0.0286
      8 C42        10.2310   26.2520    4.1260 C.3       1 SHI         0.0326
      9 N1          9.1760   25.1970    4.3250 N.4       1 SHI         0.2336
     10 C43        10.5620   26.5230    2.6110 C.2       1 SHI         0.0857
     11 O41         9.8850   25.8630    1.7630 O.co2     1 SHI        -0.5642
     12 O42        11.4500   27.3790    2.3200 O.co2     1 SHI        -0.5642
     13 H1         11.5147   26.9255    9.3610 H         1 SHI         0.2327
     14 H2         11.0440   23.6353    6.7427 H         1 SHI         0.1080
     15 H3         11.8645   24.8629    4.4223 H         1 SHI         0.0424
     16 H4         12.3157   26.5926    4.5990 H         1 SHI         0.0424
     17 H5          9.8640   27.1869    4.5746 H         1 SHI         0.1039
     18 H6          8.3262   25.4803    3.8628 H         1 SHI         0.2011
     19 H7          8.9995   25.0800    5.3105 H         1 SHI         0.2011
     20 H8          9.4957   24.3243    3.9349 H         1 SHI         0.2011
@<TRIPOS>BOND
     1    1    2 1  
     2    1    3 1  
     3    2    5 am 
     4    3    4 2  
     5    4    5 1  
     6    4    7 1  
     7    5    6 2  
     8    7    8 1  
     9    8    9 1  
    10    8   10 1  
    11   10   11 ar 
    12   10   12 ar 
    13    2   13 1  
    14    3   14 1  
    15    7   15 1  
    16    7   16 1  
    17    8   17 1  
    18    9   18 1  
    19    9   19 1  
    20    9   20 1  
@<TRIPOS>SUBSTRUCTURE
     1 SHI         1

