### 
### Created by X-TOOL on Mon Sep 10 21:12:50 2018
### 

@<TRIPOS>MOLECULE
1msm_ligand
   78    81     1     0     0
SMALL
GAST_HUCK


@<TRIPOS>ATOM
      1 C1         11.0870   17.6810   19.1870 C.ar      1 JE2        -0.0355
      2 C2         11.1600   18.3330   17.9470 C.ar      1 JE2        -0.0720
      3 C3         12.2200   19.2280   17.6880 C.ar      1 JE2        -0.0597
      4 C4         13.2250   19.4840   18.6690 C.ar      1 JE2         0.0427
      5 C5         13.1490   18.8170   19.9430 C.ar      1 JE2         0.0036
      6 C6         12.0660   17.9180   20.1730 C.ar      1 JE2         0.0948
      7 C9         14.1770   19.0330   21.0450 C.3       1 JE2        -0.0293
      8 C13        14.3140   20.4260   18.3250 C.2       1 JE2         0.1980
      9 N14        13.9020   21.6620   17.8960 N.am      1 JE2        -0.2778
     10 C15        14.8130   22.7050   17.4490 C.3       1 JE2         0.0938
     11 C16        14.2380   23.3430   16.1530 C.3       1 JE2         0.0085
     12 C17        15.0240   23.6720   18.6270 C.3       1 JE2         0.1683
     13 C19        16.3500   24.4590   18.5220 C.2       1 JE2         0.2129
     14 N20        17.5050   23.8090   18.8830 N.am      1 JE2        -0.2383
     15 C21        18.7820   24.5770   18.8680 C.3       1 JE2         0.1486
     16 C22        19.6690   24.1440   20.0950 C.3       1 JE2         0.0532
     17 S23        19.1840   22.4500   20.3600 S.3       1 JE2        -0.1252
     18 C24        17.4790   22.9050   20.0740 C.3       1 JE2         0.0831
     19 C27        13.9980   22.2990   15.0850 C.ar      1 JE2        -0.0406
     20 C30        15.0720   21.7190   14.3640 C.ar      1 JE2        -0.0603
     21 C31        14.8240   20.7370   13.3770 C.ar      1 JE2        -0.0686
     22 C32        13.4930   20.3240   13.1030 C.ar      1 JE2        -0.0687
     23 C33        12.4140   20.8960   13.8190 C.ar      1 JE2        -0.0686
     24 C34        12.6680   21.8800   14.8060 C.ar      1 JE2        -0.0603
     25 O41        13.9550   24.5840   18.6560 O.3       1 JE2        -0.3689
     26 O44        16.3110   25.6330   18.1470 O.2       1 JE2        -0.3938
     27 C45        19.3770   24.9630   21.3740 C.3       1 JE2        -0.0463
     28 C49        21.1890   24.1680   19.7940 C.3       1 JE2        -0.0463
     29 C53        19.4050   24.2990   17.4800 C.2       1 JE2         0.2049
     30 N55        20.2120   25.2820   17.0280 N.am      1 JE2        -0.2748
     31 C56        20.8690   25.1620   15.7380 C.3       1 JE2         0.0621
     32 O57        19.1540   23.2590   16.8780 O.2       1 JE2        -0.3943
     33 O60        11.9660   17.2650   21.3720 O.3       1 JE2        -0.3358
     34 O62        15.5100   20.1290   18.4130 O.2       1 JE2        -0.3887
     35 C63        20.6350   26.3790   14.8860 C.ar      1 JE2        -0.0193
     36 C66        21.7170   27.2840   14.7060 C.ar      1 JE2        -0.0649
     37 C67        21.5650   28.4450   13.9180 C.ar      1 JE2        -0.0754
     38 C68        20.3250   28.7150   13.3010 C.ar      1 JE2        -0.0755
     39 C69        19.2350   27.8290   13.4680 C.ar      1 JE2        -0.0671
     40 C70        19.3680   26.6570   14.2570 C.ar      1 JE2        -0.0422
     41 C75        18.1610   25.7500   14.3960 C.3       1 JE2        -0.0336
     42 H1         10.2744   16.9922   19.3877 H         1 JE2         0.0556
     43 H2         10.4052   18.1501   17.1908 H         1 JE2         0.0543
     44 H3         12.2719   19.7293   16.7283 H         1 JE2         0.0556
     45 H4         14.9365   19.7511   20.7022 H         1 JE2         0.0382
     46 H5         14.6609   18.0755   21.2879 H         1 JE2         0.0382
     47 H6         13.6764   19.4286   21.9410 H         1 JE2         0.0382
     48 H7         12.9212   21.8572   17.8901 H         1 JE2         0.1850
     49 H8         15.7862   22.2571   17.1993 H         1 JE2         0.0630
     50 H9         14.9532   24.0869   15.7722 H         1 JE2         0.0451
     51 H10        13.2849   23.8384   16.3901 H         1 JE2         0.0451
     52 H11        15.0341   23.0912   19.5611 H         1 JE2         0.0863
     53 H12        18.5763   25.6539   18.9577 H         1 JE2         0.0816
     54 H13        16.8718   22.0117   19.8662 H         1 JE2         0.0640
     55 H14        17.0692   23.4317   20.9484 H         1 JE2         0.0640
     56 H15        16.0896   22.0301   14.5705 H         1 JE2         0.0557
     57 H16        15.6505   20.2991   12.8291 H         1 JE2         0.0599
     58 H17        13.3035   19.5714   12.3462 H         1 JE2         0.0559
     59 H18        11.3971   20.5822   13.6128 H         1 JE2         0.0599
     60 H19        11.8410   22.3175   15.3535 H         1 JE2         0.0557
     61 H20        14.0495   25.1571   19.4077 H         1 JE2         0.2134
     62 H21        20.0264   24.6128   22.1898 H         1 JE2         0.0245
     63 H22        18.3235   24.8308   21.6615 H         1 JE2         0.0245
     64 H23        19.5734   26.0278   21.1804 H         1 JE2         0.0245
     65 H24        21.7452   23.8560   20.6903 H         1 JE2         0.0245
     66 H25        21.4908   25.1874   19.5115 H         1 JE2         0.0245
     67 H26        21.4099   23.4776   18.9666 H         1 JE2         0.0245
     68 H27        20.3587   26.0992   17.5854 H         1 JE2         0.1876
     69 H28        20.4731   24.2785   15.2158 H         1 JE2         0.0668
     70 H29        21.9505   25.0397   15.8975 H         1 JE2         0.0668
     71 H30        11.1961   16.7085   21.3650 H         1 JE2         0.2456
     72 H31        22.6703   27.0797   15.1798 H         1 JE2         0.0538
     73 H32        22.3976   29.1267   13.7873 H         1 JE2         0.0541
     74 H33        20.2070   29.6064   12.6956 H         1 JE2         0.0541
     75 H34        18.2879   28.0477   12.9881 H         1 JE2         0.0537
     76 H35        18.4194   24.8908   15.0324 H         1 JE2         0.0376
     77 H36        17.8554   25.3913   13.4020 H         1 JE2         0.0376
     78 H37        17.3325   26.3098   14.8545 H         1 JE2         0.0376
@<TRIPOS>BOND
     1    1    2 ar 
     2    1    6 ar 
     3    2    3 ar 
     4    3    4 ar 
     5    4    5 ar 
     6    4    8 1  
     7    5    6 ar 
     8    5    7 1  
     9    6   33 1  
    10    8    9 am 
    11    8   34 2  
    12    9   10 1  
    13   10   11 1  
    14   10   12 1  
    15   11   19 1  
    16   12   13 1  
    17   12   25 1  
    18   13   14 am 
    19   13   26 2  
    20   14   15 1  
    21   14   18 1  
    22   15   16 1  
    23   15   29 1  
    24   16   17 1  
    25   16   27 1  
    26   16   28 1  
    27   17   18 1  
    28   19   20 ar 
    29   19   24 ar 
    30   20   21 ar 
    31   21   22 ar 
    32   22   23 ar 
    33   23   24 ar 
    34   29   30 am 
    35   29   32 2  
    36   30   31 1  
    37   31   35 1  
    38   35   36 ar 
    39   35   40 ar 
    40   36   37 ar 
    41   37   38 ar 
    42   38   39 ar 
    43   39   40 ar 
    44   40   41 1  
    45    1   42 1  
    46    2   43 1  
    47    3   44 1  
    48    7   45 1  
    49    7   46 1  
    50    7   47 1  
    51    9   48 1  
    52   10   49 1  
    53   11   50 1  
    54   11   51 1  
    55   12   52 1  
    56   15   53 1  
    57   18   54 1  
    58   18   55 1  
    59   20   56 1  
    60   21   57 1  
    61   22   58 1  
    62   23   59 1  
    63   24   60 1  
    64   25   61 1  
    65   27   62 1  
    66   27   63 1  
    67   27   64 1  
    68   28   65 1  
    69   28   66 1  
    70   28   67 1  
    71   30   68 1  
    72   31   69 1  
    73   31   70 1  
    74   33   71 1  
    75   36   72 1  
    76   37   73 1  
    77   38   74 1  
    78   39   75 1  
    79   41   76 1  
    80   41   77 1  
    81   41   78 1  
@<TRIPOS>SUBSTRUCTURE
     1 JE2         1

