### 
### Created by X-TOOL on Mon Sep 10 21:12:50 2018
### 

@<TRIPOS>MOLECULE
1msn_ligand
   78    81     1     0     0
SMALL
GAST_HUCK


@<TRIPOS>ATOM
      1 C1         10.3500   18.0310   18.6630 C.ar      1 JE2        -0.0355
      2 C2         10.3960   18.7610   17.4600 C.ar      1 JE2        -0.0720
      3 C3         11.5060   19.5930   17.1860 C.ar      1 JE2        -0.0597
      4 C4         12.5940   19.6940   18.1060 C.ar      1 JE2         0.0427
      5 C5         12.5390   18.9480   19.3440 C.ar      1 JE2         0.0036
      6 C6         11.4110   18.1140   19.5870 C.ar      1 JE2         0.0948
      7 C9         13.6480   18.9920   20.3890 C.3       1 JE2        -0.0293
      8 C13        13.7390   20.5840   17.7660 C.2       1 JE2         0.1980
      9 N14        13.4000   21.8680   17.4450 N.am      1 JE2        -0.2778
     10 C15        14.3870   22.8850   17.0580 C.3       1 JE2         0.0938
     11 C16        13.9120   23.5650   15.7410 C.3       1 JE2         0.0085
     12 C17        14.5290   23.7930   18.2960 C.3       1 JE2         0.1683
     13 C19        15.8930   24.5330   18.3050 C.2       1 JE2         0.2129
     14 N20        17.0170   23.7990   18.5890 N.am      1 JE2        -0.2383
     15 C21        18.3080   24.5330   18.6190 C.3       1 JE2         0.1486
     16 C22        19.1570   24.0320   19.8400 C.3       1 JE2         0.0532
     17 S23        18.6540   22.3260   19.9950 S.3       1 JE2        -0.1252
     18 C24        16.9620   22.8240   19.7290 C.3       1 JE2         0.0831
     19 C27        13.8110   22.5640   14.6120 C.ar      1 JE2        -0.0406
     20 C30        14.9290   22.3090   13.7810 C.ar      1 JE2        -0.0603
     21 C31        14.8450   21.3630   12.7280 C.ar      1 JE2        -0.0686
     22 C32        13.6370   20.6650   12.5020 C.ar      1 JE2        -0.0687
     23 C33        12.5140   20.9110   13.3250 C.ar      1 JE2        -0.0686
     24 C34        12.6010   21.8560   14.3720 C.ar      1 JE2        -0.0603
     25 O41        13.4910   24.7440   18.2910 O.3       1 JE2        -0.3689
     26 O44        15.9160   25.7360   18.0550 O.2       1 JE2        -0.3938
     27 C45        18.8180   24.7880   21.1480 C.3       1 JE2        -0.0463
     28 C49        20.6800   24.0820   19.6000 C.3       1 JE2        -0.0463
     29 C53        18.9290   24.2670   17.2260 C.2       1 JE2         0.2049
     30 N55        19.7400   25.2500   16.7910 N.am      1 JE2        -0.2748
     31 C56        20.4070   25.1510   15.5020 C.3       1 JE2         0.0621
     32 O57        18.6740   23.2280   16.6140 O.2       1 JE2        -0.3943
     33 O60        11.3410   17.3920   20.7560 O.3       1 JE2        -0.3358
     34 O62        14.9150   20.2110   17.7640 O.2       1 JE2        -0.3887
     35 C63        20.7450   26.5100   14.9660 C.ar      1 JE2        -0.0193
     36 C66        22.0310   27.0430   15.2400 C.ar      1 JE2        -0.0649
     37 C67        22.4040   28.3180   14.7600 C.ar      1 JE2        -0.0754
     38 C68        21.4830   29.0850   14.0180 C.ar      1 JE2        -0.0755
     39 C69        20.1990   28.5730   13.7370 C.ar      1 JE2        -0.0671
     40 C70        19.8050   27.2920   14.2150 C.ar      1 JE2        -0.0422
     41 C75        18.4160   26.7930   13.8880 C.3       1 JE2        -0.0336
     42 H1          9.4942   17.4019   18.8797 H         1 JE2         0.0556
     43 H2          9.5835   18.6855   16.7465 H         1 JE2         0.0543
     44 H3         11.5317   20.1626   16.2641 H         1 JE2         0.0556
     45 H4         14.4405   19.6773   20.0539 H         1 JE2         0.0382
     46 H5         14.0671   17.9837   20.5216 H         1 JE2         0.0382
     47 H6         13.2367   19.3469   21.3455 H         1 JE2         0.0382
     48 H7         12.4348   22.1277   17.4749 H         1 JE2         0.1850
     49 H8         15.3601   22.4121   16.8594 H         1 JE2         0.0630
     50 H9         14.6321   24.3483   15.4621 H         1 JE2         0.0451
     51 H10        12.9236   24.0181   15.9078 H         1 JE2         0.0451
     52 H11        14.4531   23.1743   19.2023 H         1 JE2         0.0863
     53 H12        18.1351   25.6127   18.7385 H         1 JE2         0.0816
     54 H13        16.3407   21.9555   19.4650 H         1 JE2         0.0640
     55 H14        16.5549   23.3058   20.6302 H         1 JE2         0.0640
     56 H15        15.8575   22.8419   13.9514 H         1 JE2         0.0557
     57 H16        15.7063   21.1754   12.0971 H         1 JE2         0.0599
     58 H17        13.5715   19.9411   11.6978 H         1 JE2         0.0559
     59 H18        11.5874   20.3753   13.1530 H         1 JE2         0.0599
     60 H19        11.7366   22.0433   14.9987 H         1 JE2         0.0557
     61 H20        13.5564   25.2866   19.0681 H         1 JE2         0.2134
     62 H21        19.4393   24.3987   21.9680 H         1 JE2         0.0245
     63 H22        17.7554   24.6412   21.3915 H         1 JE2         0.0245
     64 H23        19.0186   25.8612   21.0138 H         1 JE2         0.0245
     65 H24        21.2044   23.7174   20.4955 H         1 JE2         0.0245
     66 H25        20.9848   25.1185   19.3932 H         1 JE2         0.0245
     67 H26        20.9368   23.4458   18.7402 H         1 JE2         0.0245
     68 H27        19.8856   26.0584   17.3613 H         1 JE2         0.1876
     69 H28        19.7417   24.6392   14.7911 H         1 JE2         0.0668
     70 H29        21.3337   24.5703   15.6202 H         1 JE2         0.0668
     71 H30        10.5349   16.8895   20.7687 H         1 JE2         0.2456
     72 H31        22.7364   26.4643   15.8253 H         1 JE2         0.0538
     73 H32        23.3960   28.7057   14.9617 H         1 JE2         0.0541
     74 H33        21.7621   30.0703   13.6626 H         1 JE2         0.0541
     75 H34        19.5041   29.1625   13.1499 H         1 JE2         0.0537
     76 H35        18.2719   25.7952   14.3280 H         1 JE2         0.0376
     77 H36        18.2954   26.7332   12.7963 H         1 JE2         0.0376
     78 H37        17.6700   27.4874   14.3019 H         1 JE2         0.0376
@<TRIPOS>BOND
     1    1    2 ar 
     2    1    6 ar 
     3    2    3 ar 
     4    3    4 ar 
     5    4    5 ar 
     6    4    8 1  
     7    5    6 ar 
     8    5    7 1  
     9    6   33 1  
    10    8    9 am 
    11    8   34 2  
    12    9   10 1  
    13   10   11 1  
    14   10   12 1  
    15   11   19 1  
    16   12   13 1  
    17   12   25 1  
    18   13   14 am 
    19   13   26 2  
    20   14   15 1  
    21   14   18 1  
    22   15   16 1  
    23   15   29 1  
    24   16   17 1  
    25   16   27 1  
    26   16   28 1  
    27   17   18 1  
    28   19   20 ar 
    29   19   24 ar 
    30   20   21 ar 
    31   21   22 ar 
    32   22   23 ar 
    33   23   24 ar 
    34   29   30 am 
    35   29   32 2  
    36   30   31 1  
    37   31   35 1  
    38   35   36 ar 
    39   35   40 ar 
    40   36   37 ar 
    41   37   38 ar 
    42   38   39 ar 
    43   39   40 ar 
    44   40   41 1  
    45    1   42 1  
    46    2   43 1  
    47    3   44 1  
    48    7   45 1  
    49    7   46 1  
    50    7   47 1  
    51    9   48 1  
    52   10   49 1  
    53   11   50 1  
    54   11   51 1  
    55   12   52 1  
    56   15   53 1  
    57   18   54 1  
    58   18   55 1  
    59   20   56 1  
    60   21   57 1  
    61   22   58 1  
    62   23   59 1  
    63   24   60 1  
    64   25   61 1  
    65   27   62 1  
    66   27   63 1  
    67   27   64 1  
    68   28   65 1  
    69   28   66 1  
    70   28   67 1  
    71   30   68 1  
    72   31   69 1  
    73   31   70 1  
    74   33   71 1  
    75   36   72 1  
    76   37   73 1  
    77   38   74 1  
    78   39   75 1  
    79   41   76 1  
    80   41   77 1  
    81   41   78 1  
@<TRIPOS>SUBSTRUCTURE
     1 JE2         1

