### 
### Created by X-TOOL on Mon Sep 10 21:12:45 2018
### 

@<TRIPOS>MOLECULE
1mtr_ligand
   92    94     1     0     0
SMALL
GAST_HUCK


@<TRIPOS>ATOM
      1 O1          3.8120   -0.1510   12.1280 O.2       1 PI6        -0.3775
      2 C           3.8390    1.0700   12.4190 C.2       1 PI6         0.3205
      3 O2          2.8460    1.9070   12.1390 O.3       1 PI6        -0.2581
      4 CT          1.6090    1.3620   11.6690 C.3       1 PI6         0.0905
      5 C1          1.0660    0.3590   12.6570 C.3       1 PI6        -0.0320
      6 C2          0.6500    2.5150   11.5790 C.3       1 PI6        -0.0320
      7 C3          1.8150    0.7460   10.2690 C.3       1 PI6        -0.0320
      8 CM          4.8260   -0.3500   15.1620 C.3       1 PI6        -0.0025
      9 N           4.8920    1.6410   12.9920 N.am      1 PI6        -0.2548
     10 CA          6.0860    0.8980   13.3940 C.3       1 PI6         0.0842
     11 CB          7.3250    1.7310   13.1470 C.3       1 PI6         0.0065
     12 CG          7.5170    2.0830   11.7380 C.ar      1 PI6        -0.0408
     13 CD1         7.8520    1.1030   10.8180 C.ar      1 PI6        -0.0603
     14 CD2         7.2770    3.3810   11.3000 C.ar      1 PI6        -0.0603
     15 CE1         7.9340    1.4070    9.4770 C.ar      1 PI6        -0.0686
     16 CE2         7.3590    3.6950    9.9590 C.ar      1 PI6        -0.0686
     17 CZ          7.6860    2.7010    9.0420 C.ar      1 PI6        -0.0687
     18 C           6.0250    0.5400   14.8670 C.3       1 PI6         0.1193
     19 O           7.2140   -0.1580   15.2100 O.3       1 PI6        -0.3841
     20 N           4.9800   -0.7490   16.5650 N.4       1 PI6         0.2493
     21 CA          4.7330   -2.1850   16.8660 C.3       1 PI6         0.0748
     22 C           5.7270   -3.1840   16.2610 C.2       1 PI6         0.2286
     23 O           5.9380   -3.2130   15.0430 O.2       1 PI6        -0.3905
     24 CB          3.3070   -2.6010   16.4850 C.3       1 PI6         0.0366
     25 CG          3.0880   -4.0880   16.5880 C.ar      1 PI6        -0.0460
     26 CD1         3.0430   -4.7290   17.8400 C.ar      1 PI6        -0.0684
     27 CD2         3.0690   -4.8820   15.4370 C.ar      1 PI6        -0.0684
     28 CE1         3.0070   -6.1030   17.9280 C.ar      1 PI6        -0.0396
     29 CE2         3.0270   -6.2650   15.5160 C.ar      1 PI6        -0.0396
     30 CZ          3.0060   -6.8700   16.7570 C.ar      1 PI6         0.0840
     31 OH          3.0180   -8.2490   16.7780 O.3       1 PI6        -0.3224
     32 N           6.3020   -4.0050   17.1410 N.am      1 PI6        -0.2606
     33 CA          7.2390   -5.1000   16.8040 C.3       1 PI6         0.1335
     34 C           6.8690   -6.1580   17.8470 C.2       1 PI6         0.2019
     35 O           6.8500   -5.8730   19.0590 O.2       1 PI6        -0.3945
     36 CB          8.7390   -4.7770   17.0390 C.3       1 PI6        -0.0037
     37 CG1         9.2220   -3.6210   16.1610 C.3       1 PI6        -0.0491
     38 CG2         9.5760   -6.0270   16.7730 C.3       1 PI6        -0.0582
     39 CD1         9.7030   -4.0590   14.8430 C.3       1 PI6        -0.0648
     40 N           6.5430   -7.3550   17.3700 N.am      1 PI6        -0.2850
     41 CA          6.1610   -8.4480   18.2470 C.3       1 PI6         0.0334
     42 C           5.0770   -9.2840   17.5770 C.3       1 PI6        -0.0051
     43 C           3.6870   -8.7600   17.9160 C.3       1 PI6         0.0707
     44 H1          0.1165   -0.0493   12.2806 H         1 PI6         0.0260
     45 H2          0.8946    0.8533   13.6246 H         1 PI6         0.0260
     46 H3          1.7910   -0.4581   12.7860 H         1 PI6         0.0260
     47 H4         -0.3251    2.1537   11.2204 H         1 PI6         0.0260
     48 H5          1.0435    3.2654   10.8775 H         1 PI6         0.0260
     49 H6          0.5294    2.9701   12.5731 H         1 PI6         0.0260
     50 H7          0.8636    0.3275    9.9090 H         1 PI6         0.0260
     51 H8          2.5684   -0.0534   10.3273 H         1 PI6         0.0260
     52 H9          2.1598    1.5248    9.5728 H         1 PI6         0.0260
     53 H10         4.8308   -1.2336   14.5069 H         1 PI6         0.0841
     54 H11         3.8880    0.2067   15.0200 H         1 PI6         0.0841
     55 H12         4.8675    2.6270   13.1567 H         1 PI6         0.1873
     56 H13         6.1461   -0.0262   12.8006 H         1 PI6         0.0606
     57 H14         8.2022    1.1608   13.4867 H         1 PI6         0.0449
     58 H15         7.2429    2.6598   13.7305 H         1 PI6         0.0449
     59 H16         8.0506    0.0920   11.1550 H         1 PI6         0.0557
     60 H17         7.0234    4.1524   12.0181 H         1 PI6         0.0557
     61 H18         8.1924    0.6350    8.7613 H         1 PI6         0.0599
     62 H19         7.1702    4.7080    9.6225 H         1 PI6         0.0599
     63 H20         7.7471    2.9379    7.9860 H         1 PI6         0.0559
     64 H21         5.9490    1.4611   15.4635 H         1 PI6         0.0672
     65 H22         7.1961   -0.3766   16.1344 H         1 PI6         0.2101
     66 H23         5.9239   -0.5332   16.8450 H         1 PI6         0.2038
     67 H24         4.3337   -0.2034   17.1134 H         1 PI6         0.2038
     68 H25         4.8214   -2.2834   17.9580 H         1 PI6         0.1121
     69 H26         3.1142   -2.2879   15.4483 H         1 PI6         0.0486
     70 H27         2.6006   -2.0938   17.1586 H         1 PI6         0.0486
     71 H28         3.0366   -4.1341   18.7462 H         1 PI6         0.0530
     72 H29         3.0875   -4.4061   14.4632 H         1 PI6         0.0530
     73 H30         2.9796   -6.5872   18.8975 H         1 PI6         0.0525
     74 H31         3.0108   -6.8652   14.6135 H         1 PI6         0.0525
     75 H32         6.0821   -3.8697   18.1071 H         1 PI6         0.1885
     76 H33         7.0838   -5.4456   15.7713 H         1 PI6         0.0803
     77 H34         8.8682   -4.4846   18.0915 H         1 PI6         0.0345
     78 H35        10.0441   -3.1069   16.6804 H         1 PI6         0.0267
     79 H36         8.3866   -2.9208   16.0136 H         1 PI6         0.0267
     80 H37         9.2189   -6.8497   17.4098 H         1 PI6         0.0235
     81 H38        10.6312   -5.8174   17.0023 H         1 PI6         0.0235
     82 H39         9.4806   -6.3140   15.7154 H         1 PI6         0.0235
     83 H40        10.0341   -3.1841   14.2642 H         1 PI6         0.0230
     84 H41         8.8887   -4.5672   14.3058 H         1 PI6         0.0230
     85 H42        10.5462   -4.7534   14.9726 H         1 PI6         0.0230
     86 H43         6.5612   -7.5070   16.3818 H         1 PI6         0.1851
     87 H44         7.0386   -9.0797   18.4487 H         1 PI6         0.0521
     88 H45         5.7769   -8.0408   19.1939 H         1 PI6         0.0521
     89 H46         5.1619  -10.3248   17.9226 H         1 PI6         0.0310
     90 H47         5.2181   -9.2469   16.4867 H         1 PI6         0.0310
     91 H48         3.0911   -9.5827   18.3380 H         1 PI6         0.0611
     92 H49         3.7829   -7.9568   18.6614 H         1 PI6         0.0611
@<TRIPOS>BOND
     1    2    1 2  
     2    2    3 1  
     3    3    4 1  
     4    4    7 1  
     5    4    6 1  
     6    4    5 1  
     7   18    8 1  
     8   18   19 1  
     9   10   18 1  
    10   10   11 1  
    11    9   10 1  
    12   11   12 1  
    13   12   14 ar 
    14   12   13 ar 
    15   13   15 ar 
    16   15   17 ar 
    17   16   17 ar 
    18   14   16 ar 
    19   21   22 1  
    20   21   24 1  
    21   20   21 1  
    22   24   25 1  
    23   25   27 ar 
    24   25   26 ar 
    25   26   28 ar 
    26   28   30 ar 
    27   30   31 1  
    28   29   30 ar 
    29   27   29 ar 
    30   22   23 2  
    31   33   34 1  
    32   33   36 1  
    33   32   33 1  
    34   36   37 1  
    35   36   38 1  
    36   37   39 1  
    37   34   35 2  
    38   41   42 1  
    39   40   41 1  
    40   22   32 am 
    41   34   40 am 
    42    8   20 1  
    43   31   43 1  
    44   43   42 1  
    45    9    2 am 
    46    5   44 1  
    47    5   45 1  
    48    5   46 1  
    49    6   47 1  
    50    6   48 1  
    51    6   49 1  
    52    7   50 1  
    53    7   51 1  
    54    7   52 1  
    55    8   53 1  
    56    8   54 1  
    57    9   55 1  
    58   10   56 1  
    59   11   57 1  
    60   11   58 1  
    61   13   59 1  
    62   14   60 1  
    63   15   61 1  
    64   16   62 1  
    65   17   63 1  
    66   18   64 1  
    67   19   65 1  
    68   20   66 1  
    69   20   67 1  
    70   21   68 1  
    71   24   69 1  
    72   24   70 1  
    73   26   71 1  
    74   27   72 1  
    75   28   73 1  
    76   29   74 1  
    77   32   75 1  
    78   33   76 1  
    79   36   77 1  
    80   37   78 1  
    81   37   79 1  
    82   38   80 1  
    83   38   81 1  
    84   38   82 1  
    85   39   83 1  
    86   39   84 1  
    87   39   85 1  
    88   40   86 1  
    89   41   87 1  
    90   41   88 1  
    91   42   89 1  
    92   42   90 1  
    93   43   91 1  
    94   43   92 1  
@<TRIPOS>SUBSTRUCTURE
     1 PI6         1

