### 
### Created by X-TOOL on Mon Sep 10 21:12:51 2018
### 

@<TRIPOS>MOLECULE
1mu6_ligand
   50    52     1     0     0
SMALL
GAST_HUCK


@<TRIPOS>ATOM
      1 N1         21.0030  -16.5290   25.1660 N.ar      1 CDA        -0.2660
      2 C2         19.9150  -15.9270   25.8320 C.ar      1 CDA         0.0907
      3 C3         20.0020  -14.5590   26.3240 C.ar      1 CDA        -0.0073
      4 C4         21.2530  -13.8830   26.0790 C.ar      1 CDA        -0.0135
      5 C5         22.3420  -14.5410   25.3720 C.ar      1 CDA        -0.0062
      6 C6         22.2100  -15.9040   24.9070 C.ar      1 CDA         0.0418
      7 C11        18.6310  -16.7480   25.9420 C.3       1 CDA         0.2698
      8 C12        18.0830  -17.1760   24.5920 C.3       1 CDA         0.0722
      9 F13        17.6280  -16.1140   26.5880 F         1 CDA        -0.2417
     10 F1         18.9320  -17.8750   26.6020 F         1 CDA        -0.2417
     11 N18        17.4760  -16.0450   23.8730 N.pl3     1 CDA        -0.3028
     12 C21        18.0880  -15.3250   22.8760 C.2       1 CDA         0.1787
     13 C22        17.4500  -14.0430   22.4650 C.2       1 CDA         0.2696
     14 N23        18.0980  -13.3440   21.4690 N.am      1 CDA        -0.1873
     15 C24        19.3180  -13.8330   20.8740 C.2       1 CDA         0.0702
     16 C25        19.8710  -15.0400   21.3370 C.2       1 CDA        -0.0163
     17 N26        19.2510  -15.7300   22.2940 N.2       1 CDA        -0.3247
     18 O28        16.4120  -13.6170   22.9680 O.2       1 CDA        -0.3930
     19 C29        20.0270  -13.1170   19.7930 C.3       1 CDA        -0.0007
     20 C33        17.4940  -12.0810   21.0030 C.3       1 CDA         0.1530
     21 C34        16.0640  -12.2970   20.5380 C.2       1 CDA         0.2095
     22 N37        15.1990  -11.3330   20.9400 N.am      1 CDA        -0.2715
     23 O38        15.7760  -13.2640   19.8350 O.2       1 CDA        -0.3938
     24 C39        13.7930  -11.3680   20.5230 C.3       1 CDA         0.0808
     25 C40        12.8490  -11.3470   21.7030 C.ar      1 CDA         0.0839
     26 C43        11.8640  -12.3760   21.8290 C.ar      1 CDA         0.1633
     27 C44        10.9730  -12.3960   22.9570 C.ar      1 CDA        -0.0150
     28 C45        11.0960  -11.3520   23.9430 C.ar      1 CDA        -0.0432
     29 N46        12.9510  -10.3500   22.6580 N.ar      1 CDA        -0.2983
     30 F47        11.8270  -13.2730   20.8440 F         1 CDA        -0.1794
     31 C50        12.1070  -10.3310   23.7580 C.ar      1 CDA        -0.0015
     32 H1         19.1792  -14.0791   26.8414 H         1 CDA         0.0954
     33 H2         21.3844  -12.8653   26.4283 H         1 CDA         0.0811
     34 H3         23.2649  -14.0018   25.1915 H         1 CDA         0.0937
     35 H4         23.0137  -16.4090   24.3835 H         1 CDA         0.0932
     36 H5         17.3194  -17.9526   24.7462 H         1 CDA         0.0491
     37 H6         18.9049  -17.5850   23.9860 H         1 CDA         0.0491
     38 H7         16.5187  -15.7721   24.1375 H         1 CDA         0.1807
     39 H8         20.8039  -15.4103   20.9145 H         1 CDA         0.0298
     40 H9         20.9255  -13.6831   19.5062 H         1 CDA         0.0448
     41 H10        20.3206  -12.1175   20.1463 H         1 CDA         0.0448
     42 H11        19.3627  -13.0175   18.9219 H         1 CDA         0.0448
     43 H12        18.0881  -11.6862   20.1657 H         1 CDA         0.0868
     44 H13        17.4971  -11.3550   21.8293 H         1 CDA         0.0868
     45 H14        15.5229  -10.5908   21.5267 H         1 CDA         0.1881
     46 H15        13.6174  -12.2871   19.9447 H         1 CDA         0.0705
     47 H16        13.5889  -10.4918   19.8900 H         1 CDA         0.0705
     48 H17        10.2279  -13.1761   23.0632 H         1 CDA         0.0703
     49 H18        10.4432  -11.3311   24.8082 H         1 CDA         0.0641
     50 H19        12.2053   -9.5391   24.4917 H         1 CDA         0.0765
@<TRIPOS>BOND
     1    1    2 ar 
     2    1    6 ar 
     3    2    3 ar 
     4    2    7 1  
     5    3    4 ar 
     6    4    5 ar 
     7    5    6 ar 
     8    7    8 1  
     9    7    9 1  
    10    7   10 1  
    11    8   11 1  
    12   11   12 1  
    13   12   13 1  
    14   12   17 2  
    15   13   14 am 
    16   13   18 2  
    17   14   15 am 
    18   14   20 1  
    19   15   16 2  
    20   15   19 1  
    21   16   17 1  
    22   20   21 1  
    23   21   22 am 
    24   21   23 2  
    25   22   24 1  
    26   24   25 1  
    27   25   26 ar 
    28   25   29 ar 
    29   26   27 ar 
    30   26   30 1  
    31   27   28 ar 
    32   28   31 ar 
    33   29   31 ar 
    34    3   32 1  
    35    4   33 1  
    36    5   34 1  
    37    6   35 1  
    38    8   36 1  
    39    8   37 1  
    40   11   38 1  
    41   16   39 1  
    42   19   40 1  
    43   19   41 1  
    44   19   42 1  
    45   20   43 1  
    46   20   44 1  
    47   22   45 1  
    48   24   46 1  
    49   24   47 1  
    50   27   48 1  
    51   28   49 1  
    52   31   50 1  
@<TRIPOS>SUBSTRUCTURE
     1 CDA         1

