### 
### Created by X-TOOL on Mon Sep 10 21:12:51 2018
### 

@<TRIPOS>MOLECULE
1mu8_ligand
   53    55     1     0     0
SMALL
GAST_HUCK


@<TRIPOS>ATOM
      1 N1         21.1780  -16.7010   25.4070 N.ar      1 CDB        -0.2660
      2 C2         20.0330  -16.0520   25.9220 C.ar      1 CDB         0.0907
      3 C3         20.0650  -14.6260   26.2280 C.ar      1 CDB        -0.0073
      4 C4         21.3150  -13.9430   25.9570 C.ar      1 CDB        -0.0135
      5 C5         22.4530  -14.6530   25.3870 C.ar      1 CDB        -0.0062
      6 C6         22.3790  -16.0760   25.1120 C.ar      1 CDB         0.0418
      7 C11        18.7470  -16.8750   26.0440 C.3       1 CDB         0.2698
      8 C12        18.1550  -17.2280   24.6820 C.3       1 CDB         0.0722
      9 F13        17.7800  -16.2900   26.7950 F         1 CDB        -0.2417
     10 F1         19.0610  -18.0500   26.6110 F         1 CDB        -0.2417
     11 N18        17.5530  -16.0680   23.9960 N.pl3     1 CDB        -0.3028
     12 C21        18.1460  -15.3600   22.9720 C.2       1 CDB         0.1787
     13 C22        17.4540  -14.1250   22.4830 C.2       1 CDB         0.2696
     14 N23        18.1050  -13.4120   21.4820 N.am      1 CDB        -0.1873
     15 C24        19.3510  -13.8850   20.9220 C.2       1 CDB         0.0702
     16 C25        19.9300  -15.0650   21.4330 C.2       1 CDB        -0.0163
     17 N26        19.3360  -15.7330   22.4270 N.2       1 CDB        -0.3247
     18 O28        16.3690  -13.7490   22.9310 O.2       1 CDB        -0.3930
     19 C29        20.0650  -13.1800   19.8330 C.3       1 CDB        -0.0007
     20 C33        17.4600  -12.1780   20.9700 C.3       1 CDB         0.1530
     21 C34        16.0350  -12.4860   20.5320 C.2       1 CDB         0.2095
     22 N37        15.0910  -11.5730   20.9010 N.am      1 CDB        -0.2717
     23 O38        15.7950  -13.4930   19.8760 O.2       1 CDB        -0.3938
     24 C39        13.6630  -11.7940   20.5840 C.3       1 CDB         0.0787
     25 C40        12.7380  -11.6840   21.7980 C.ar      1 CDB         0.0755
     26 C43        12.8360  -10.5670   22.6690 C.ar      1 CDB         0.1627
     27 C44        11.9870  -10.4830   23.8270 C.ar      1 CDB         0.0007
     28 C45        11.0360  -11.5280   24.1130 C.ar      1 CDB        -0.0419
     29 N46        11.8020  -12.6630   22.0970 N.ar      1 CDB        -0.3081
     30 F47        13.7300   -9.6110   22.3840 F         1 CDB        -0.1856
     31 C50        10.9610  -12.6350   23.1990 C.ar      1 CDB        -0.0094
     32 C1         12.0660   -9.3140   24.7450 C.3       1 CDB        -0.0248
     33 H1         19.2043  -14.1072   26.6343 H         1 CDB         0.0954
     34 H2         21.4046  -12.8864   26.1822 H         1 CDB         0.0811
     35 H3         23.3657  -14.1116   25.1658 H         1 CDB         0.0937
     36 H4         23.2192  -16.6214   24.6976 H         1 CDB         0.0932
     37 H5         17.3773  -17.9926   24.8254 H         1 CDB         0.0491
     38 H6         18.9557  -17.6341   24.0465 H         1 CDB         0.0491
     39 H7         16.6188  -15.7642   24.3058 H         1 CDB         0.1807
     40 H8         20.8658  -15.4339   21.0157 H         1 CDB         0.0298
     41 H9         20.9829  -13.7308   19.5797 H         1 CDB         0.0448
     42 H10        20.3265  -12.1640   20.1636 H         1 CDB         0.0448
     43 H11        19.4161  -13.1216   18.9467 H         1 CDB         0.0448
     44 H12        18.0317  -11.7962   20.1113 H         1 CDB         0.0868
     45 H13        17.4416  -11.4183   21.7653 H         1 CDB         0.0868
     46 H14        15.3671  -10.7460   21.3907 H         1 CDB         0.1881
     47 H15        13.5545  -12.8011   20.1552 H         1 CDB         0.0703
     48 H16        13.3521  -11.0440   19.8418 H         1 CDB         0.0703
     49 H17        10.3985  -11.4806   24.9884 H         1 CDB         0.0582
     50 H18        10.2545  -13.4393   23.3695 H         1 CDB         0.0745
     51 H19        12.8360   -8.6161   24.3845 H         1 CDB         0.0406
     52 H20        12.3282   -9.6588   25.7561 H         1 CDB         0.0406
     53 H21        11.0922   -8.8031   24.7728 H         1 CDB         0.0406
@<TRIPOS>BOND
     1    1    2 ar 
     2    1    6 ar 
     3    2    3 ar 
     4    2    7 1  
     5    3    4 ar 
     6    4    5 ar 
     7    5    6 ar 
     8    7    8 1  
     9    7    9 1  
    10    7   10 1  
    11    8   11 1  
    12   11   12 1  
    13   12   13 1  
    14   12   17 2  
    15   13   14 am 
    16   13   18 2  
    17   14   15 am 
    18   14   20 1  
    19   15   16 2  
    20   15   19 1  
    21   16   17 1  
    22   20   21 1  
    23   21   22 am 
    24   21   23 2  
    25   22   24 1  
    26   24   25 1  
    27   25   26 ar 
    28   25   29 ar 
    29   26   27 ar 
    30   26   30 1  
    31   27   28 ar 
    32   27   32 1  
    33   28   31 ar 
    34   29   31 ar 
    35    3   33 1  
    36    4   34 1  
    37    5   35 1  
    38    6   36 1  
    39    8   37 1  
    40    8   38 1  
    41   11   39 1  
    42   16   40 1  
    43   19   41 1  
    44   19   42 1  
    45   19   43 1  
    46   20   44 1  
    47   20   45 1  
    48   22   46 1  
    49   24   47 1  
    50   24   48 1  
    51   28   49 1  
    52   31   50 1  
    53   32   51 1  
    54   32   52 1  
    55   32   53 1  
@<TRIPOS>SUBSTRUCTURE
     1 CDB         1

