### 
### Created by X-TOOL on Mon Sep 10 21:12:49 2018
### 

@<TRIPOS>MOLECULE
1mui_ligand
   94    97     1     0     0
SMALL
GAST_HUCK


@<TRIPOS>ATOM
      1 C1        -12.8260   12.8350   34.8630 C.3       1 AB1         0.0330
      2 C2        -10.6950   13.4560   33.6930 C.3       1 AB1         0.0388
      3 N1        -11.3120   14.7950   33.3690 N.am      1 AB1        -0.2377
      4 C3        -12.6020   15.1110   33.7730 C.2       1 AB1         0.2622
      5 N2        -13.3030   14.1780   34.4780 N.am      1 AB1        -0.2728
      6 C4         -6.2280   18.1490   27.5220 C.ar      1 AB1        -0.0408
      7 C5         -5.5330   18.8920   26.5370 C.ar      1 AB1        -0.0603
      8 C6         -4.2180   18.5350   26.1490 C.ar      1 AB1        -0.0686
      9 C7         -3.5830   17.4290   26.7450 C.ar      1 AB1        -0.0687
     10 C8         -4.2660   16.6810   27.7290 C.ar      1 AB1        -0.0686
     11 C9         -5.5790   17.0370   28.1160 C.ar      1 AB1        -0.0603
     12 O1        -13.1160   16.1860   33.5160 O.2       1 AB1        -0.4005
     13 C10       -10.5260   15.8120   32.5870 C.3       1 AB1         0.1362
     14 C11       -10.3560   15.3130   31.1260 C.2       1 AB1         0.2023
     15 N3        -11.2180   15.9240   30.2550 N.am      1 AB1        -0.2800
     16 C12       -11.2830   15.6520   28.8020 C.3       1 AB1         0.0540
     17 C13        -9.1410   16.1410   33.2720 C.3       1 AB1        -0.0063
     18 C14        -8.3090   17.1860   32.5040 C.3       1 AB1        -0.0584
     19 C15        -9.3490   16.6480   34.7180 C.3       1 AB1        -0.0584
     20 O2         -9.5230   14.4560   30.8260 O.2       1 AB1        -0.3945
     21 C16       -12.7040   11.1390   29.1350 C.ar      1 AB1        -0.0686
     22 C17       -13.3650   11.1000   30.3860 C.ar      1 AB1        -0.0687
     23 C18       -13.7730   12.3060   31.0020 C.ar      1 AB1        -0.0686
     24 C19       -13.5190   13.5420   30.3650 C.ar      1 AB1        -0.0603
     25 C20       -12.8550   13.5900   29.1090 C.ar      1 AB1        -0.0408
     26 C21       -12.4510   12.3790   28.5010 C.ar      1 AB1        -0.0603
     27 C22       -12.5910   14.9100   28.4420 C.3       1 AB1         0.0040
     28 C23       -11.2870   16.9600   27.9810 C.3       1 AB1         0.0004
     29 C24       -10.1160   17.9510   28.1120 C.3       1 AB1         0.0821
     30 C25        -8.7120   17.4430   27.6950 C.3       1 AB1         0.0774
     31 N4         -8.7530   17.0970   26.2550 N.am      1 AB1        -0.2772
     32 C26        -8.2660   15.9270   25.7320 C.2       1 AB1         0.2068
     33 C27        -8.3990   15.8070   24.2010 C.3       1 AB1         0.1556
     34 O3         -8.7210   17.0700   23.5900 O.3       1 AB1        -0.3054
     35 C28        -8.2970   17.1830   22.2520 C.ar      1 AB1         0.0966
     36 O4        -10.4330   19.0340   27.2710 O.3       1 AB1        -0.3893
     37 C29        -7.6370   18.5480   27.9160 C.3       1 AB1         0.0064
     38 O5         -7.7420   15.0210   26.3890 O.2       1 AB1        -0.3941
     39 C30        -9.0670   16.6400   21.1650 C.ar      1 AB1        -0.0230
     40 C31        -8.5870   16.7880   19.8360 C.ar      1 AB1        -0.0759
     41 C32        -7.3740   17.4590   19.5740 C.ar      1 AB1        -0.0862
     42 C33        -6.6140   17.9970   20.6320 C.ar      1 AB1        -0.0759
     43 C34        -7.0610   17.8680   21.9690 C.ar      1 AB1        -0.0230
     44 C35        -6.2340   18.4510   23.0640 C.3       1 AB1        -0.0348
     45 C36       -10.3740   15.9150   21.3830 C.3       1 AB1        -0.0348
     46 C37       -11.2960   12.7740   34.9400 C.3       1 AB1        -0.0125
     47 H1        -13.1741   12.1060   34.1164 H         1 AB1         0.0517
     48 H2        -13.2424   12.5782   35.8482 H         1 AB1         0.0517
     49 H3         -9.6185   13.6034   33.8643 H         1 AB1         0.0522
     50 H4        -10.8411   12.7897   32.8300 H         1 AB1         0.0522
     51 H5        -14.2290   14.4273   34.7615 H         1 AB1         0.1845
     52 H6         -6.0138   19.7458   26.0734 H         1 AB1         0.0557
     53 H7         -3.7005   19.1139   25.3926 H         1 AB1         0.0599
     54 H8         -2.5768   17.1534   26.4507 H         1 AB1         0.0559
     55 H9         -3.7809   15.8286   28.1907 H         1 AB1         0.0599
     56 H10        -6.0931   16.4553   28.8725 H         1 AB1         0.0557
     57 H11       -11.1090   16.7444   32.5604 H         1 AB1         0.0802
     58 H12       -11.8496   16.6036   30.6281 H         1 AB1         0.1856
     59 H13       -10.4155   15.0386   28.5170 H         1 AB1         0.0579
     60 H14        -8.5609   15.2072   33.3100 H         1 AB1         0.0342
     61 H15        -7.3630   17.3645   33.0362 H         1 AB1         0.0234
     62 H16        -8.8746   18.1270   32.4360 H         1 AB1         0.0234
     63 H17        -8.0953   16.8126   31.4916 H         1 AB1         0.0234
     64 H18        -9.9421   15.9133   35.2823 H         1 AB1         0.0234
     65 H19        -9.8816   17.6102   34.6962 H         1 AB1         0.0234
     66 H20        -8.3713   16.7810   35.2041 H         1 AB1         0.0234
     67 H21       -12.3904   10.2160   28.6608 H         1 AB1         0.0599
     68 H22       -13.5578   10.1494   30.8701 H         1 AB1         0.0559
     69 H23       -14.2792   12.2825   31.9602 H         1 AB1         0.0599
     70 H24       -13.8342   14.4641   30.8398 H         1 AB1         0.0557
     71 H25       -11.9442   12.4004   27.5430 H         1 AB1         0.0557
     72 H26       -12.5791   14.7322   27.3565 H         1 AB1         0.0448
     73 H27       -13.4273   15.5782   28.6950 H         1 AB1         0.0448
     74 H28       -12.1997   17.5074   28.2590 H         1 AB1         0.0315
     75 H29       -11.3416   16.6704   26.9212 H         1 AB1         0.0315
     76 H30       -10.0608   18.2838   29.1590 H         1 AB1         0.0619
     77 H31        -8.4507   16.5539   28.2876 H         1 AB1         0.0604
     78 H32        -9.1613   17.7580   25.6254 H         1 AB1         0.1857
     79 H33        -9.1965   15.0859   23.9686 H         1 AB1         0.0853
     80 H34        -7.4457   15.4451   23.7884 H         1 AB1         0.0853
     81 H35       -11.2911   19.3709   27.5003 H         1 AB1         0.2099
     82 H36        -7.9229   19.4280   27.3212 H         1 AB1         0.0449
     83 H37        -7.6323   18.8128   28.9836 H         1 AB1         0.0449
     84 H38        -9.1608   16.3797   19.0119 H         1 AB1         0.0471
     85 H39        -7.0245   17.5614   18.5530 H         1 AB1         0.0489
     86 H40        -5.6835   18.5116   20.4211 H         1 AB1         0.0471
     87 H41        -6.7218   18.2628   24.0318 H         1 AB1         0.0366
     88 H42        -6.1325   19.5353   22.9093 H         1 AB1         0.0366
     89 H43        -5.2376   17.9850   23.0589 H         1 AB1         0.0366
     90 H44       -10.6025   15.8865   22.4586 H         1 AB1         0.0366
     91 H45       -10.2921   14.8878   20.9982 H         1 AB1         0.0366
     92 H46       -11.1793   16.4428   20.8510 H         1 AB1         0.0366
     93 H47       -10.9715   11.7236   34.9766 H         1 AB1         0.0304
     94 H48       -10.9525   13.2957   35.8455 H         1 AB1         0.0304
@<TRIPOS>BOND
     1    5    1 1  
     2   46    1 1  
     3    3    2 1  
     4    2   46 1  
     5    3    4 am 
     6   13    3 1  
     7    4    5 am 
     8    4   12 2  
     9    6    7 ar 
    10    6   11 ar 
    11   37    6 1  
    12    7    8 ar 
    13    8    9 ar 
    14   10    9 ar 
    15   11   10 ar 
    16   14   13 1  
    17   13   17 1  
    18   15   14 am 
    19   14   20 2  
    20   16   15 1  
    21   16   27 1  
    22   28   16 1  
    23   17   18 1  
    24   17   19 1  
    25   21   22 ar 
    26   26   21 ar 
    27   23   22 ar 
    28   24   23 ar 
    29   25   24 ar 
    30   25   26 ar 
    31   27   25 1  
    32   29   28 1  
    33   30   29 1  
    34   29   36 1  
    35   30   31 1  
    36   30   37 1  
    37   31   32 am 
    38   32   33 1  
    39   32   38 2  
    40   33   34 1  
    41   34   35 1  
    42   35   39 ar 
    43   35   43 ar 
    44   39   40 ar 
    45   39   45 1  
    46   40   41 ar 
    47   41   42 ar 
    48   42   43 ar 
    49   43   44 1  
    50    1   47 1  
    51    1   48 1  
    52    2   49 1  
    53    2   50 1  
    54    5   51 1  
    55    7   52 1  
    56    8   53 1  
    57    9   54 1  
    58   10   55 1  
    59   11   56 1  
    60   13   57 1  
    61   15   58 1  
    62   16   59 1  
    63   17   60 1  
    64   18   61 1  
    65   18   62 1  
    66   18   63 1  
    67   19   64 1  
    68   19   65 1  
    69   19   66 1  
    70   21   67 1  
    71   22   68 1  
    72   23   69 1  
    73   24   70 1  
    74   26   71 1  
    75   27   72 1  
    76   27   73 1  
    77   28   74 1  
    78   28   75 1  
    79   29   76 1  
    80   30   77 1  
    81   31   78 1  
    82   33   79 1  
    83   33   80 1  
    84   36   81 1  
    85   37   82 1  
    86   37   83 1  
    87   40   84 1  
    88   41   85 1  
    89   42   86 1  
    90   44   87 1  
    91   44   88 1  
    92   44   89 1  
    93   45   90 1  
    94   45   91 1  
    95   45   92 1  
    96   46   93 1  
    97   46   94 1  
@<TRIPOS>SUBSTRUCTURE
     1 AB1         1

