### 
### Created by X-TOOL on Mon Sep 10 21:12:49 2018
### 

@<TRIPOS>MOLECULE
1mx1_ligand
   29    31     1     0     0
SMALL
GAST_HUCK


@<TRIPOS>ATOM
      1 C1         22.9510  -28.7130   25.7730 C.ar      1 THA        -0.0640
      2 C2         23.2920  -29.5050   26.8960 C.ar      1 THA        -0.0521
      3 C3         22.2970  -29.8660   27.8410 C.ar      1 THA         0.0179
      4 C4         20.8940  -29.4120   27.6510 C.ar      1 THA         0.0195
      5 C5         20.6030  -28.6090   26.4930 C.ar      1 THA        -0.0528
      6 C6         21.6220  -28.2690   25.5710 C.ar      1 THA        -0.0632
      7 N7         22.6380  -30.6140   28.8950 N.ar      1 THA        -0.3281
      8 C8         21.7640  -30.9990   29.8330 C.ar      1 THA         0.0105
      9 C9         20.3600  -30.6200   29.7640 C.ar      1 THA         0.0052
     10 C10        19.9270  -29.8130   28.6510 C.ar      1 THA         0.0665
     11 C11        22.3190  -31.8720   31.0080 C.3       1 THA        -0.0081
     12 C12        21.2510  -32.5540   31.9190 C.3       1 THA        -0.0400
     13 C13        20.0870  -31.5770   32.2290 C.3       1 THA        -0.0439
     14 C14        19.3940  -31.1150   30.9150 C.3       1 THA        -0.0210
     15 N15        18.6270  -29.4480   28.5650 N.pl3     1 THA        -0.3283
     16 H1         23.7189  -28.4426   25.0573 H         1 THA         0.0621
     17 H2         24.3149  -29.8361   27.0341 H         1 THA         0.0590
     18 H3         19.5906  -28.2600   26.3245 H         1 THA         0.0636
     19 H4         21.3829  -27.6641   24.7038 H         1 THA         0.0585
     20 H5         22.9395  -31.2240   31.6445 H         1 THA         0.0453
     21 H6         22.9444  -32.6648   30.5717 H         1 THA         0.0453
     22 H7         21.7251  -32.8611   32.8629 H         1 THA         0.0292
     23 H8         20.8508  -33.4400   31.4044 H         1 THA         0.0292
     24 H9         20.4843  -30.6973   32.7565 H         1 THA         0.0284
     25 H10        19.3491  -32.0850   32.8673 H         1 THA         0.0284
     26 H11        18.8110  -31.9624   30.5251 H         1 THA         0.0386
     27 H12        18.7148  -30.2867   31.1650 H         1 THA         0.0386
     28 H13        18.3052  -28.8714   27.7745 H         1 THA         0.1779
     29 H14        17.9592  -29.7467   29.2900 H         1 THA         0.1779
@<TRIPOS>BOND
     1    2    1 ar 
     2    1    6 ar 
     3    2    3 ar 
     4    3    4 ar 
     5    3    7 ar 
     6    4    5 ar 
     7    4   10 ar 
     8    5    6 ar 
     9    7    8 ar 
    10    8    9 ar 
    11    8   11 1  
    12    9   10 ar 
    13    9   14 1  
    14   10   15 1  
    15   11   12 1  
    16   12   13 1  
    17   13   14 1  
    18    1   16 1  
    19    2   17 1  
    20    5   18 1  
    21    6   19 1  
    22   11   20 1  
    23   11   21 1  
    24   12   22 1  
    25   12   23 1  
    26   13   24 1  
    27   13   25 1  
    28   14   26 1  
    29   14   27 1  
    30   15   28 1  
    31   15   29 1  
@<TRIPOS>SUBSTRUCTURE
     1 THA         1

