### 
### Created by X-TOOL on Mon Sep 10 21:12:50 2018
### 

@<TRIPOS>MOLECULE
1mxu_ligand
   23    23     1     0     0
SMALL
GAST_HUCK


@<TRIPOS>ATOM
      1 N1         78.0040   26.6240   42.2490 N.am      1 BWD        -0.1766
      2 C2         78.1420   25.3240   41.6740 C.2       1 BWD         0.3342
      3 O2         78.2260   24.2960   42.3090 O.2       1 BWD        -0.3799
      4 N3         78.1740   25.3310   40.2610 N.am      1 BWD        -0.1864
      5 C4         78.0770   26.4150   39.4140 C.2       1 BWD         0.1888
      6 O4         78.1310   26.3090   38.2070 O.2       1 BWD        -0.4134
      7 C5         77.9220   27.7380   40.1450 C.2       1 BWD         0.0774
      8 BR5        77.7130   29.3370   39.1690 Br        1 BWD        -0.0876
      9 C6         77.8770   27.7360   41.4940 C.2       1 BWD         0.0706
     10 C7         77.8990   26.7760   43.7040 C.3       1 BWD         0.1227
     11 C8         76.5990   26.2400   44.2790 C.3       1 BWD         0.0570
     12 N8         75.4960   27.2190   43.9740 N.4       1 BWD         0.2347
     13 C9         76.6350   25.9120   45.7760 C.2       1 BWD         0.0872
     14 O91        75.7940   26.4080   46.4900 O.co2     1 BWD        -0.5642
     15 O92        77.6170   25.1630   46.1440 O.co2     1 BWD        -0.5642
     16 H1         78.2801   24.4394   39.8209 H         1 BWD         0.2259
     17 H2         77.7296   28.6872   42.0033 H         1 BWD         0.1254
     18 H3         77.9722   27.8461   43.9481 H         1 BWD         0.0698
     19 H4         78.7351   26.2352   44.1714 H         1 BWD         0.0698
     20 H5         76.3750   25.2999   43.7536 H         1 BWD         0.1053
     21 H6         74.6270   26.8742   44.3509 H         1 BWD         0.2011
     22 H7         75.4096   27.3275   42.9756 H         1 BWD         0.2011
     23 H8         75.7130   28.1105   44.3914 H         1 BWD         0.2011
@<TRIPOS>BOND
     1    1    2 am 
     2    1    9 am 
     3    1   10 1  
     4    2    3 2  
     5    2    4 am 
     6    4    5 am 
     7    5    6 2  
     8    5    7 1  
     9    7    8 1  
    10    7    9 2  
    11   10   11 1  
    12   11   12 1  
    13   11   13 1  
    14   13   14 ar 
    15   13   15 ar 
    16    4   16 1  
    17    9   17 1  
    18   10   18 1  
    19   10   19 1  
    20   11   20 1  
    21   12   21 1  
    22   12   22 1  
    23   12   23 1  
@<TRIPOS>SUBSTRUCTURE
     1 BWD         1

