### 
### Created by X-TOOL on Sun Sep  9 21:50:04 2018
### 

@<TRIPOS>MOLECULE
1my2_ligand
   23    23     1     0     0
SMALL
GAST_HUCK


@<TRIPOS>ATOM
      1 N          48.4200   25.5000   43.0060 N.4       1 NON         0.2334
      2 CA         47.3100   26.4980   43.1070 C.3       1 NON         0.0310
      3 C          47.0400   26.8210   44.6210 C.2       1 NON         0.0855
      4 OT1        46.0960   27.6400   44.8830 O.co2     1 NON        -0.5642
      5 OT2        47.7780   26.2460   45.4730 O.co2     1 NON        -0.5642
      6 CB         46.0450   25.9320   42.4090 C.3       1 NON         0.0206
      7 CG         46.2120   25.6560   40.9290 C.2       1 NON         0.0192
      8 CD1        46.0320   26.5640   39.8430 C.2       1 NON         0.1423
      9 CD2        46.6300   24.5450   40.2620 C.2       1 NON         0.1244
     10 CE2        47.0680   23.1780   40.6820 C.3       1 NON         0.0020
     11 OE1        45.6470   27.7980   40.1590 O.3       1 NON        -0.3354
     12 NE1        46.2870   26.1470   38.6280 N.2       1 NON        -0.1562
     13 OE2        46.6900   24.7850   38.9000 O.3       1 NON        -0.1950
     14 H1         48.5960   25.2903   42.0359 H         1 NON         0.2011
     15 H2         48.1578   24.6556   43.4900 H         1 NON         0.2011
     16 H3         49.2541   25.8817   43.4239 H         1 NON         0.2011
     17 H4         47.6098   27.4249   42.5962 H         1 NON         0.1036
     18 H5         45.2301   26.6604   42.5324 H         1 NON         0.0400
     19 H6         45.7722   24.9890   42.9052 H         1 NON         0.0400
     20 H7         47.3239   22.5852   39.7914 H         1 NON         0.0422
     21 H8         46.2520   22.6836   41.2295 H         1 NON         0.0422
     22 H9         47.9502   23.2598   41.3339 H         1 NON         0.0422
     23 H10        45.5238   27.8591   41.0990 H         1 NON         0.2430
@<TRIPOS>BOND
     1    1    2 1  
     2    2    3 1  
     3    2    6 1  
     4    3    4 ar 
     5    3    5 ar 
     6    6    7 1  
     7    7    8 1  
     8    7    9 2  
     9    8   11 1  
    10    8   12 2  
    11    9   10 1  
    12    9   13 1  
    13   12   13 1  
    14    1   14 1  
    15    1   15 1  
    16    1   16 1  
    17    2   17 1  
    18    6   18 1  
    19    6   19 1  
    20   10   20 1  
    21   10   21 1  
    22   10   22 1  
    23   11   23 1  
@<TRIPOS>SUBSTRUCTURE
     1 NON         1

