### 
### Created by X-TOOL on Mon Sep 10 21:12:50 2018
### 

@<TRIPOS>MOLECULE
1my3_ligand
   23    23     1     0     0
SMALL
GAST_HUCK


@<TRIPOS>ATOM
      1 N1         77.8470   26.6500   42.1250 N.am      1 BWD        -0.1766
      2 C2         77.9740   25.3570   41.5650 C.2       1 BWD         0.3342
      3 O2         78.0710   24.3480   42.2090 O.2       1 BWD        -0.3799
      4 N3         78.0000   25.3390   40.1590 N.am      1 BWD        -0.1864
      5 C4         77.8840   26.4050   39.3130 C.2       1 BWD         0.1888
      6 O4         77.9230   26.2990   38.1100 O.2       1 BWD        -0.4134
      7 C5         77.7360   27.7220   40.0320 C.2       1 BWD         0.0774
      8 BR5        77.5100   29.3100   39.0370 Br        1 BWD        -0.0876
      9 C6         77.7090   27.7390   41.3740 C.2       1 BWD         0.0706
     10 C7         77.7560   26.8160   43.5640 C.3       1 BWD         0.1227
     11 C8         76.4560   26.2790   44.1030 C.3       1 BWD         0.0570
     12 N8         75.3760   27.2970   43.8490 N.4       1 BWD         0.2347
     13 C9         76.4670   25.9140   45.5810 C.2       1 BWD         0.0872
     14 O91        75.6340   26.4200   46.2980 O.co2     1 BWD        -0.5642
     15 O92        77.4260   25.1350   45.9250 O.co2     1 BWD        -0.5642
     16 H1         78.1168   24.4435   39.7296 H         1 BWD         0.2259
     17 H2         77.5665   28.6956   41.8746 H         1 BWD         0.1254
     18 H3         77.8271   27.8869   43.8050 H         1 BWD         0.0698
     19 H4         78.5891   26.2771   44.0389 H         1 BWD         0.0698
     20 H5         76.2175   25.3640   43.5409 H         1 BWD         0.1053
     21 H6         74.4984   26.9516   44.2047 H         1 BWD         0.2011
     22 H7         75.2955   27.4613   42.8578 H         1 BWD         0.2011
     23 H8         75.6111   28.1596   44.3146 H         1 BWD         0.2011
@<TRIPOS>BOND
     1    1    2 am 
     2    1    9 am 
     3    1   10 1  
     4    2    3 2  
     5    2    4 am 
     6    4    5 am 
     7    5    6 2  
     8    5    7 1  
     9    7    8 1  
    10    7    9 2  
    11   10   11 1  
    12   11   12 1  
    13   11   13 1  
    14   13   14 ar 
    15   13   15 ar 
    16    4   16 1  
    17    9   17 1  
    18   10   18 1  
    19   10   19 1  
    20   11   20 1  
    21   12   21 1  
    22   12   22 1  
    23   12   23 1  
@<TRIPOS>SUBSTRUCTURE
     1 BWD         1

