### 
### Created by X-TOOL on Mon Sep 10 21:12:50 2018
### 

@<TRIPOS>MOLECULE
1my4_ligand
   23    23     1     0     0
SMALL
GAST_HUCK


@<TRIPOS>ATOM
      1 N1         77.7800   26.8970   42.4860 N.am      1 IWD        -0.1771
      2 C2         77.8930   25.6330   41.9020 C.2       1 IWD         0.3335
      3 O2         77.9750   24.6180   42.5330 O.2       1 IWD        -0.3803
      4 N3         77.8640   25.6520   40.4920 N.am      1 IWD        -0.1861
      5 C4         77.7610   26.7580   39.6760 C.2       1 IWD         0.1904
      6 O4         77.7620   26.6720   38.4710 O.2       1 IWD        -0.4130
      7 C5         77.6260   28.0790   40.4410 C.2       1 IWD         0.0750
      8 I5         77.3390   29.9640   39.4640 I         1 IWD        -0.0847
      9 C6         77.6270   28.0220   41.7730 C.2       1 IWD         0.0710
     10 C7         77.7150   27.0080   43.9230 C.3       1 IWD         0.1223
     11 C8         76.4170   26.4680   44.4430 C.3       1 IWD         0.0569
     12 N8         75.3110   27.4610   44.1640 N.4       1 IWD         0.2347
     13 C9         76.4300   26.1310   45.9150 C.2       1 IWD         0.0872
     14 O91        75.5960   26.6480   46.6090 O.co2     1 IWD        -0.5642
     15 O92        77.3860   25.3470   46.2810 O.co2     1 IWD        -0.5642
     16 H1         77.9249   24.7652   40.0338 H         1 IWD         0.2259
     17 H2         77.4943   28.9543   42.3200 H         1 IWD         0.1247
     18 H3         77.8040   28.0670   44.2068 H         1 IWD         0.0697
     19 H4         78.5453   26.4386   44.3662 H         1 IWD         0.0697
     20 H5         76.2000   25.5405   43.8929 H         1 IWD         0.1053
     21 H6         74.4378   27.0984   44.5135 H         1 IWD         0.2011
     22 H7         75.2381   27.6124   43.1701 H         1 IWD         0.2011
     23 H8         75.5197   28.3341   44.6225 H         1 IWD         0.2011
@<TRIPOS>BOND
     1    1    2 am 
     2    1    9 1  
     3    1   10 1  
     4    2    3 2  
     5    2    4 am 
     6    4    5 am 
     7    5    6 2  
     8    5    7 1  
     9    7    8 1  
    10    7    9 2  
    11   10   11 1  
    12   11   12 1  
    13   11   13 1  
    14   13   14 ar 
    15   13   15 ar 
    16    4   16 1  
    17    9   17 1  
    18   10   18 1  
    19   10   19 1  
    20   11   20 1  
    21   12   21 1  
    22   12   22 1  
    23   12   23 1  
@<TRIPOS>SUBSTRUCTURE
     1 IWD         1

