### 
### Created by X-TOOL on Mon Sep 10 21:12:49 2018
### 

@<TRIPOS>MOLECULE
1mzc_ligand
   69    72     1     0     0
SMALL
GAST_HUCK


@<TRIPOS>ATOM
      1 C1         14.5970  135.5110   -4.6940 C.3       1 BNE         0.0404
      2 C2         14.4290  134.0330   -4.0840 C.ar      1 BNE        -0.0465
      3 C3         16.1330  135.9440   -4.9550 C.2       1 BNE         0.1682
      4 C4         13.6970  135.5740   -6.0210 C.3       1 BNE        -0.0631
      5 C5         14.0150  136.6010   -3.6960 C.3       1 BNE        -0.0660
      6 C6         15.5560  133.3530   -3.5590 C.ar      1 BNE        -0.0061
      7 C7         13.1740  133.3260   -4.0080 C.ar      1 BNE        -0.0480
      8 N8         16.9250  135.2990   -5.9540 N.am      1 BNE        -0.2828
      9 O9         16.6390  136.8580   -4.2700 O.2       1 BNE        -0.3656
     10 C10        13.9800  134.5780   -7.1700 C.3       1 BNE        -0.0585
     11 C11        14.4070  136.4690   -2.2080 C.3       1 BNE        -0.0726
     12 C12        15.4980  132.0440   -2.9810 C.ar      1 BNE         0.1481
     13 C13        13.0950  132.0150   -3.4370 C.ar      1 BNE        -0.0378
     14 C14        16.4980  134.2450   -6.8830 C.3       1 BNE         0.0328
     15 C15        18.3160  135.7220   -6.1370 C.3       1 BNE         0.0218
     16 C16        15.3690  134.7030   -7.7990 C.3       1 BNE        -0.0332
     17 O17        16.6820  131.4310   -2.4750 O.3       1 BNE        -0.2373
     18 C18        14.2550  131.3730   -2.9240 C.ar      1 BNE         0.0022
     19 C19        17.8320  132.2480   -2.3910 C.ar      1 BNE         0.1690
     20 C20        18.8010  132.3610   -3.4460 C.ar      1 BNE         0.1448
     21 C21        18.0070  132.9980   -1.1940 C.ar      1 BNE        -0.0085
     22 C22        19.9210  133.2120   -3.2750 C.ar      1 BNE        -0.0182
     23 C23        18.6250  131.7080   -4.7090 C.1       1 BNE         0.1068
     24 C24        19.1270  133.8700   -1.0090 C.ar      1 BNE        -0.0398
     25 C25        20.0830  133.9570   -2.0780 C.ar      1 BNE        -0.0530
     26 N26        18.4220  131.2060   -5.7280 N.1       1 BNE        -0.3276
     27 C27        19.3220  134.6930    0.2930 C.3       1 BNE        -0.0038
     28 C28        19.3080  133.8390    1.5610 C.2       1 BNE         0.0825
     29 C29        18.2190  135.7940    0.4250 C.3       1 BNE        -0.0602
     30 N30        20.6330  135.3480    0.2530 N.4       1 BNE         0.1365
     31 N31        20.0940  132.7240    1.7930 N.pl3     1 BNE        -0.2333
     32 C32        18.5490  133.9460    2.7280 C.2       1 BNE         0.0318
     33 C33        19.7520  132.2710    3.0230 C.2       1 BNE         0.1361
     34 C34        21.1080  132.0520    0.9940 C.3       1 BNE         0.0520
     35 NZ         18.8250  132.9690    3.6430 N.2       1 BNE        -0.2619
     36 H1         13.8083  136.5859   -6.4376 H         1 BNE         0.0168
     37 H2         12.6535  135.4182   -5.7099 H         1 BNE         0.0168
     38 H3         12.9177  136.5533   -3.7556 H         1 BNE         0.0165
     39 H4         14.3587  137.5864   -4.0436 H         1 BNE         0.0165
     40 H5         16.5174  133.8524   -3.5971 H         1 BNE         0.0766
     41 H6         12.2746  133.7954   -4.3899 H         1 BNE         0.0775
     42 H7         13.2311  134.7432   -7.9585 H         1 BNE         0.0258
     43 H8         13.8749  133.5578   -6.7724 H         1 BNE         0.0258
     44 H9         13.9396  137.2814   -1.6323 H         1 BNE         0.0221
     45 H10        15.5008  136.5324   -2.1099 H         1 BNE         0.0221
     46 H11        14.0598  135.4993   -1.8219 H         1 BNE         0.0221
     47 H12        12.1389  131.5059   -3.3955 H         1 BNE         0.0678
     48 H13        16.1512  133.3790   -6.3001 H         1 BNE         0.0523
     49 H14        17.3579  133.9496   -7.5021 H         1 BNE         0.0523
     50 H15        18.5587  136.5094   -5.4082 H         1 BNE         0.0487
     51 H16        18.4494  136.1125   -7.1567 H         1 BNE         0.0487
     52 H17        18.9841  134.8618   -5.9834 H         1 BNE         0.0487
     53 H18        15.5390  135.7581   -8.0594 H         1 BNE         0.0285
     54 H19        15.3931  134.0913   -8.7129 H         1 BNE         0.0285
     55 H20        14.1872  130.3802   -2.4940 H         1 BNE         0.0810
     56 H21        17.2729  132.9064   -0.4017 H         1 BNE         0.0708
     57 H22        20.6595  133.2946   -4.0642 H         1 BNE         0.0730
     58 H23        20.9453  134.6046   -1.9680 H         1 BNE         0.0688
     59 H24        18.2147  136.4191   -0.4801 H         1 BNE         0.0112
     60 H25        18.4308  136.4218    1.3031 H         1 BNE         0.0112
     61 H26        17.2358  135.3156    0.5448 H         1 BNE         0.0112
     62 H27        21.3550  134.6497    0.1679 H         1 BNE         0.1933
     63 H28        20.7722  135.8734    1.1019 H         1 BNE         0.1933
     64 H29        20.6733  135.9711   -0.5383 H         1 BNE         0.1933
     65 H30        17.8109  134.7296    2.8927 H         1 BNE         0.0984
     66 H31        20.2125  131.3901    3.4678 H         1 BNE         0.1540
     67 H32        21.2301  132.5802    0.0369 H         1 BNE         0.0591
     68 H33        20.7963  131.0145    0.8030 H         1 BNE         0.0591
     69 H34        22.0640  132.0534    1.5381 H         1 BNE         0.0591
@<TRIPOS>BOND
     1    1    2 1  
     2    1    3 1  
     3    1    4 1  
     4    1    5 1  
     5    2    6 ar 
     6    2    7 ar 
     7    3    8 am 
     8    3    9 2  
     9    4   10 1  
    10    5   11 1  
    11    6   12 ar 
    12    7   13 ar 
    13    8   14 1  
    14    8   15 1  
    15   10   16 1  
    16   12   17 1  
    17   12   18 ar 
    18   13   18 ar 
    19   14   16 1  
    20   17   19 1  
    21   19   20 ar 
    22   19   21 ar 
    23   20   22 ar 
    24   20   23 1  
    25   21   24 ar 
    26   22   25 ar 
    27   23   26 3  
    28   24   25 ar 
    29   24   27 1  
    30   27   28 1  
    31   27   29 1  
    32   27   30 1  
    33   28   31 1  
    34   28   32 2  
    35   31   33 1  
    36   31   34 1  
    37   32   35 1  
    38   33   35 2  
    39    4   36 1  
    40    4   37 1  
    41    5   38 1  
    42    5   39 1  
    43    6   40 1  
    44    7   41 1  
    45   10   42 1  
    46   10   43 1  
    47   11   44 1  
    48   11   45 1  
    49   11   46 1  
    50   13   47 1  
    51   14   48 1  
    52   14   49 1  
    53   15   50 1  
    54   15   51 1  
    55   15   52 1  
    56   16   53 1  
    57   16   54 1  
    58   18   55 1  
    59   21   56 1  
    60   22   57 1  
    61   25   58 1  
    62   29   59 1  
    63   29   60 1  
    64   29   61 1  
    65   30   62 1  
    66   30   63 1  
    67   30   64 1  
    68   32   65 1  
    69   33   66 1  
    70   34   67 1  
    71   34   68 1  
    72   34   69 1  
@<TRIPOS>SUBSTRUCTURE
     1 BNE         1

