### 
### Created by X-TOOL on Mon Sep 10 21:12:50 2018
### 

@<TRIPOS>MOLECULE
1n0s_ligand
   36    39     1     0     0
SMALL
GAST_HUCK


@<TRIPOS>ATOM
      1 C1          6.5950   75.0230   53.2010 C.2       1 FLU         0.0657
      2 O1          6.2580   74.2370   54.1230 O.2       1 FLU        -0.4450
      3 C2          6.4230   74.6230   51.8730 C.2       1 FLU        -0.0203
      4 C3          6.7730   75.4750   50.8730 C.2       1 FLU         0.1270
      5 O2          6.5590   74.9870   49.5890 O.3       1 FLU        -0.2389
      6 C4          6.8010   75.7850   48.5050 C.ar      1 FLU         0.1463
      7 C5          6.5470   75.1990   47.2800 C.ar      1 FLU         0.0164
      8 C6          6.7500   75.9420   46.1210 C.ar      1 FLU         0.0948
      9 O3          6.5000   75.4000   44.9420 O.3       1 FLU        -0.3270
     10 C7          7.2500   77.2670   46.2690 C.ar      1 FLU        -0.0279
     11 C8          7.4870   77.8420   47.5020 C.ar      1 FLU        -0.0500
     12 C9          7.2630   77.1010   48.6970 C.ar      1 FLU         0.0432
     13 C10         7.5400   77.5860   50.0160 C.2       1 FLU         0.0243
     14 C11         7.2480   76.7810   51.0990 C.2       1 FLU         0.0389
     15 C12         7.4190   77.1740   52.4810 C.2       1 FLU        -0.0506
     16 C13         7.0810   76.3450   53.4880 C.2       1 FLU        -0.0379
     17 C14         7.9550   79.0250   50.1830 C.ar      1 FLU         0.0186
     18 C15         6.9800   79.9180   50.5880 C.ar      1 FLU        -0.0403
     19 C16         7.2780   81.2620   50.7380 C.ar      1 FLU        -0.0511
     20 C17         8.5120   81.7690   50.4130 C.ar      1 FLU        -0.0515
     21 C18         9.4790   80.8850   49.9720 C.ar      1 FLU        -0.0397
     22 C19         9.2090   79.5260   49.8470 C.ar      1 FLU         0.0276
     23 C20        10.2710   78.6140   49.3530 C.2       1 FLU         0.0676
     24 O4         11.0030   79.0420   48.4680 O.co2     1 FLU        -0.5591
     25 O5         10.3220   77.4870   49.8490 O.co2     1 FLU        -0.5591
     26 H1          6.0136   73.6407   51.6420 H         1 FLU         0.0188
     27 H2          6.1947   74.1754   47.2225 H         1 FLU         0.0506
     28 H3          5.5854   75.1471   44.8985 H         1 FLU         0.2529
     29 H4          7.4530   77.8484   45.3769 H         1 FLU         0.0527
     30 H5          7.8456   78.8633   47.5604 H         1 FLU         0.0652
     31 H6          7.8279   78.1567   52.7112 H         1 FLU         0.0659
     32 H7          7.1762   76.6770   54.5208 H         1 FLU         0.0512
     33 H8          5.9756   79.5636   50.7894 H         1 FLU         0.0696
     34 H9          6.5169   81.9315   51.1222 H         1 FLU         0.0656
     35 H10         8.7213   82.8291   50.4995 H         1 FLU         0.0681
     36 H11        10.4651   81.2573   49.7191 H         1 FLU         0.0671
@<TRIPOS>BOND
     1    1    2 2  
     2    1    3 1  
     3    1   16 1  
     4    3    4 2  
     5    4    5 1  
     6    4   14 1  
     7    5    6 1  
     8    6    7 ar 
     9    6   12 ar 
    10    7    8 ar 
    11    8    9 1  
    12    8   10 ar 
    13   10   11 ar 
    14   11   12 ar 
    15   12   13 1  
    16   13   14 2  
    17   13   17 1  
    18   14   15 1  
    19   15   16 2  
    20   17   18 ar 
    21   17   22 ar 
    22   18   19 ar 
    23   19   20 ar 
    24   20   21 ar 
    25   21   22 ar 
    26   22   23 1  
    27   23   24 ar 
    28   23   25 ar 
    29    3   26 1  
    30    7   27 1  
    31    9   28 1  
    32   10   29 1  
    33   11   30 1  
    34   15   31 1  
    35   16   32 1  
    36   18   33 1  
    37   19   34 1  
    38   20   35 1  
    39   21   36 1  
@<TRIPOS>SUBSTRUCTURE
     1 FLU         1

