### 
### Created by X-TOOL on Mon Sep 10 21:12:50 2018
### 

@<TRIPOS>MOLECULE
1n1g_ligand
   13    14     1     0     0
SMALL
GAST_HUCK


@<TRIPOS>ATOM
      1 CL         33.0560   56.2780   31.8530 Cl        1 BCP        -0.0301
      2 C6         33.9490   55.0030   30.9600 C.ar      1 BCP         0.1370
      3 N1         35.2730   54.8720   31.1150 N.ar      1 BCP        -0.2544
      4 C2         35.9950   53.9290   30.4650 C.ar      1 BCP         0.1487
      5 BR         37.8460   53.8920   30.8020 Br        1 BCP         0.0024
      6 C5         33.3180   54.0380   30.0200 C.ar      1 BCP         0.1018
      7 C4         34.1690   53.0520   29.3640 C.ar      1 BCP         0.1692
      8 N3         35.4830   53.0230   29.6010 N.ar      1 BCP        -0.2436
      9 N7         32.0630   53.8360   29.6040 N.2       1 BCP        -0.2907
     10 C8         32.1180   52.7810   28.7280 C.2       1 BCP         0.1115
     11 N9         33.3920   52.3010   28.5790 N.pl3     1 BCP        -0.2306
     12 H1         31.2502   52.3732   28.2118 H         1 BCP         0.1384
     13 H2         33.6912   51.5175   27.9811 H         1 BCP         0.2406
@<TRIPOS>BOND
     1    1    2 1  
     2    2    3 ar 
     3    2    6 ar 
     4    3    4 ar 
     5    4    5 1  
     6    4    8 ar 
     7    6    7 ar 
     8    6    9 1  
     9    7    8 ar 
    10    7   11 1  
    11    9   10 2  
    12   10   11 1  
    13   10   12 1  
    14   11   13 1  
@<TRIPOS>SUBSTRUCTURE
     1 BCP         1

