### 
### Created by X-TOOL on Mon Sep 10 21:12:49 2018
### 

@<TRIPOS>MOLECULE
1n1m_ligand
   31    31     1     0     0
SMALL
GAST_HUCK


@<TRIPOS>ATOM
      1 C1         84.1890   77.2130   97.3480 C.3       1 A3M        -0.0307
      2 C2         82.8540   76.3810   97.0320 C.3       1 A3M         0.0341
      3 N3         82.6620   75.5160   98.2090 N.am      1 A3M        -0.2686
      4 C4         84.0340   75.2340   98.6920 C.3       1 A3M         0.0341
      5 C5         84.6320   76.6600   98.7760 C.3       1 A3M        -0.0307
      6 C14        81.8000   74.3630   97.9530 C.2       1 A3M         0.2272
      7 C15        80.4200   74.3850   97.4480 C.3       1 A3M         0.0674
      8 C16        79.2960   74.2300   98.4320 C.3       1 A3M         0.0139
      9 C17        79.2210   75.2820   99.4580 C.3       1 A3M        -0.0553
     10 O18        82.3220   73.1150   98.2010 O.2       1 A3M        -0.3907
     11 N19        80.2150   73.3530   96.3790 N.4       1 A3M         0.2381
     12 C26        77.8050   74.2860   97.6340 C.3       1 A3M        -0.0553
     13 H1         83.9807   78.2923   97.3901 H         1 A3M         0.0285
     14 H2         84.9637   77.0182   96.5918 H         1 A3M         0.0285
     15 H3         82.9811   75.7753   96.1226 H         1 A3M         0.0522
     16 H4         81.9965   77.0581   96.9048 H         1 A3M         0.0522
     17 H5         84.5897   74.6068   97.9794 H         1 A3M         0.0522
     18 H6         84.0204   74.7455   99.6775 H         1 A3M         0.0522
     19 H7         84.1899   77.2430   99.5974 H         1 A3M         0.0285
     20 H8         85.7261   76.6406   98.8876 H         1 A3M         0.0285
     21 H9         80.2917   75.3753   96.9866 H         1 A3M         0.1101
     22 H10        79.4157   73.2563   98.9296 H         1 A3M         0.0376
     23 H11        78.3711   75.0818  100.1270 H         1 A3M         0.0236
     24 H12        79.0827   76.2591   98.9720 H         1 A3M         0.0236
     25 H13        80.1530   75.2916  100.0421 H         1 A3M         0.0236
     26 H14        80.9530   73.4253   95.6963 H         1 A3M         0.2015
     27 H15        79.3257   73.5064   95.9299 H         1 A3M         0.2015
     28 H16        80.2286   72.4338   96.7923 H         1 A3M         0.2015
     29 H17        77.7830   73.5209   96.8440 H         1 A3M         0.0236
     30 H18        77.6665   75.2806   97.1851 H         1 A3M         0.0236
     31 H19        76.9962   74.0928   98.3541 H         1 A3M         0.0236
@<TRIPOS>BOND
     1    1    2 1  
     2    1    5 1  
     3    2    3 1  
     4    3    4 1  
     5    3    6 am 
     6    4    5 1  
     7    6    7 1  
     8    6   10 2  
     9    7    8 1  
    10    7   11 1  
    11    8    9 1  
    12    8   12 1  
    13    1   13 1  
    14    1   14 1  
    15    2   15 1  
    16    2   16 1  
    17    4   17 1  
    18    4   18 1  
    19    5   19 1  
    20    5   20 1  
    21    7   21 1  
    22    8   22 1  
    23    9   23 1  
    24    9   24 1  
    25    9   25 1  
    26   11   26 1  
    27   11   27 1  
    28   11   28 1  
    29   12   29 1  
    30   12   30 1  
    31   12   31 1  
@<TRIPOS>SUBSTRUCTURE
     1 A3M         1

