### 
### Created by X-TOOL on Mon Sep 10 21:12:49 2018
### 

@<TRIPOS>MOLECULE
1n1t_ligand
   36    36     1     0     0
SMALL
GAST_HUCK


@<TRIPOS>ATOM
      1 C1         26.7420   -4.0680    8.9050 C.2       1 DAN         0.0809
      2 C2         25.5060   -3.4670    8.5820 C.2       1 DAN         0.1088
      3 C3         25.3410   -2.0090    8.8180 C.2       1 DAN        -0.0276
      4 C4         24.0660   -1.4590    8.1740 C.3       1 DAN         0.1003
      5 C5         22.9720   -2.4970    8.1340 C.3       1 DAN         0.1064
      6 C6         23.5070   -3.7170    7.3940 C.3       1 DAN         0.1321
      7 C7         22.4930   -4.8490    7.2510 C.3       1 DAN         0.1154
      8 C8         23.1030   -6.0910    6.6280 C.3       1 DAN         0.1068
      9 C9         22.0640   -7.2190    6.5530 C.3       1 DAN         0.0727
     10 C10        20.5810   -2.1270    7.8090 C.2       1 DAN         0.1734
     11 C11        19.4610   -1.3550    7.1540 C.3       1 DAN         0.0257
     12 N5         21.8370   -1.8570    7.4870 N.am      1 DAN        -0.2770
     13 O1A        27.6530   -3.4570    9.7230 O.co2     1 DAN        -0.5623
     14 O1B        26.9930   -5.2630    8.4780 O.co2     1 DAN        -0.5623
     15 O4         23.6650   -0.2960    8.9060 O.3       1 DAN        -0.3807
     16 O6         24.6210   -4.2480    8.1060 O.3       1 DAN        -0.3189
     17 O7         21.9760   -5.2570    8.5200 O.3       1 DAN        -0.3861
     18 O8         23.5510   -5.7960    5.3040 O.3       1 DAN        -0.3869
     19 O9         20.9620   -6.9020    5.7290 O.3       1 DAN        -0.3924
     20 O10        20.2520   -3.1040    8.7160 O.2       1 DAN        -0.3974
     21 H1         26.0460   -1.4019    9.3839 H         1 DAN         0.0480
     22 H2         24.2924   -1.1635    7.1389 H         1 DAN         0.0740
     23 H3         22.6869   -2.7963    9.1534 H         1 DAN         0.0632
     24 H4         23.8259   -3.3992    6.3904 H         1 DAN         0.0697
     25 H5         21.6675   -4.4926    6.6174 H         1 DAN         0.0650
     26 H6         23.9558   -6.4202    7.2399 H         1 DAN         0.0643
     27 H7         21.6945   -7.4230    7.5688 H         1 DAN         0.0584
     28 H8         22.5529   -8.1195    6.1529 H         1 DAN         0.0584
     29 H9         18.4949   -1.7118    7.5404 H         1 DAN         0.0467
     30 H10        19.4990   -1.5066    6.0652 H         1 DAN         0.0467
     31 H11        19.5731   -0.2842    7.3793 H         1 DAN         0.0467
     32 H12        22.0127   -1.1843    6.7682 H         1 DAN         0.1858
     33 H13        22.9012    0.0892    8.4927 H         1 DAN         0.2127
     34 H14        21.5802   -4.5105    8.9543 H         1 DAN         0.2100
     35 H15        22.8117   -5.5210    4.7746 H         1 DAN         0.2100
     36 H16        21.2672   -6.7315    4.8456 H         1 DAN         0.2095
@<TRIPOS>BOND
     1    2    1 1  
     2    1   13 ar 
     3    1   14 ar 
     4    3    2 2  
     5   16    2 1  
     6    4    3 1  
     7    5    4 1  
     8    4   15 1  
     9    5    6 1  
    10   12    5 1  
    11    6    7 1  
    12    6   16 1  
    13    7    8 1  
    14    7   17 1  
    15    8    9 1  
    16    8   18 1  
    17    9   19 1  
    18   10   11 1  
    19   12   10 am 
    20   10   20 2  
    21    3   21 1  
    22    4   22 1  
    23    5   23 1  
    24    6   24 1  
    25    7   25 1  
    26    8   26 1  
    27    9   27 1  
    28    9   28 1  
    29   11   29 1  
    30   11   30 1  
    31   11   31 1  
    32   12   32 1  
    33   15   33 1  
    34   17   34 1  
    35   18   35 1  
    36   19   36 1  
@<TRIPOS>SUBSTRUCTURE
     1 DAN         1

