### 
### Created by X-TOOL on Mon Sep 10 21:12:50 2018
### 

@<TRIPOS>MOLECULE
1n1v_ligand
   36    36     1     0     0
SMALL
GAST_HUCK


@<TRIPOS>ATOM
      1 C1         26.8420   -3.8040    9.4340 C.2       1 DAN         0.0809
      2 C2         25.6400   -3.2280    9.0500 C.2       1 DAN         0.1088
      3 C3         25.5100   -1.7360    9.2070 C.2       1 DAN        -0.0276
      4 C4         24.1940   -1.1850    8.6640 C.3       1 DAN         0.1003
      5 C5         23.1210   -2.2640    8.6610 C.3       1 DAN         0.1064
      6 C6         23.6610   -3.4530    7.8730 C.3       1 DAN         0.1321
      7 C7         22.6000   -4.5430    7.6040 C.3       1 DAN         0.1154
      8 C8         23.1910   -5.8390    7.0610 C.3       1 DAN         0.1068
      9 C9         22.1020   -6.9120    6.9920 C.3       1 DAN         0.0727
     10 C10        20.7050   -2.0340    8.3240 C.2       1 DAN         0.1734
     11 C11        19.6530   -1.2250    7.6260 C.3       1 DAN         0.0257
     12 N5         21.9510   -1.6990    8.0310 N.am      1 DAN        -0.2770
     13 O1A        27.7030   -3.2040   10.3770 O.co2     1 DAN        -0.5623
     14 O1B        27.1830   -4.9300    8.8970 O.co2     1 DAN        -0.5623
     15 O4         23.7650   -0.1170    9.4720 O.3       1 DAN        -0.3807
     16 O6         24.7470   -4.0050    8.5960 O.3       1 DAN        -0.3189
     17 O7         21.9250   -4.9030    8.7970 O.3       1 DAN        -0.3861
     18 O8         23.6990   -5.6350    5.7710 O.3       1 DAN        -0.3869
     19 O9         21.2780   -6.6720    5.8640 O.3       1 DAN        -0.3924
     20 O10        20.3880   -3.0800    9.2060 O.2       1 DAN        -0.3974
     21 H1         26.2780   -1.1125    9.6624 H         1 DAN         0.0480
     22 H2         24.3502   -0.8268    7.6358 H         1 DAN         0.0740
     23 H3         22.8801   -2.5757    9.6880 H         1 DAN         0.0632
     24 H4         24.0258   -3.0873    6.9019 H         1 DAN         0.0697
     25 H5         21.8772   -4.1438    6.8772 H         1 DAN         0.0650
     26 H6         24.0002   -6.1761    7.7255 H         1 DAN         0.0643
     27 H7         21.4921   -6.8758    7.9067 H         1 DAN         0.0584
     28 H8         22.5688   -7.9039    6.9015 H         1 DAN         0.0584
     29 H9         18.6568   -1.5764    7.9326 H         1 DAN         0.0467
     30 H10        19.7636   -1.3405    6.5377 H         1 DAN         0.0467
     31 H11        19.7668   -0.1647    7.8957 H         1 DAN         0.0467
     32 H12        22.0923   -1.0062    7.3239 H         1 DAN         0.1858
     33 H13        22.9548    0.2364    9.1239 H         1 DAN         0.2127
     34 H14        21.5330   -4.1288    9.1837 H         1 DAN         0.2100
     35 H15        22.9978   -5.3489    5.1973 H         1 DAN         0.2100
     36 H16        21.8062   -6.7032    5.0750 H         1 DAN         0.2095
@<TRIPOS>BOND
     1    2    1 1  
     2    1   13 ar 
     3    1   14 ar 
     4    3    2 2  
     5   16    2 1  
     6    4    3 1  
     7    5    4 1  
     8    4   15 1  
     9    5    6 1  
    10   12    5 1  
    11    6    7 1  
    12    6   16 1  
    13    7    8 1  
    14    7   17 1  
    15    8    9 1  
    16    8   18 1  
    17    9   19 1  
    18   10   11 1  
    19   12   10 am 
    20   10   20 2  
    21    3   21 1  
    22    4   22 1  
    23    5   23 1  
    24    6   24 1  
    25    7   25 1  
    26    8   26 1  
    27    9   27 1  
    28    9   28 1  
    29   11   29 1  
    30   11   30 1  
    31   11   31 1  
    32   12   32 1  
    33   15   33 1  
    34   17   34 1  
    35   18   35 1  
    36   19   36 1  
@<TRIPOS>SUBSTRUCTURE
     1 DAN         1

