### 
### Created by X-TOOL on Mon Sep 10 21:12:50 2018
### 

@<TRIPOS>MOLECULE
1n3i_ligand
   36    38     1     0     0
SMALL
GAST_HUCK


@<TRIPOS>ATOM
      1 O5'        54.7860   13.5760   44.0320 O.3       1 DIH        -0.3944
      2 C5'        54.9630   14.9140   44.4710 C.3       1 DIH         0.0544
      3 C4'        56.2460   15.6180   44.7340 C.3       1 DIH         0.0531
      4 C6'        57.0460   15.6340   43.5030 C.3       1 DIH        -0.0234
      5 C3'        56.0710   17.0320   45.1720 C.3       1 DIH         0.1046
      6 O3'        56.9050   17.4660   46.2280 O.3       1 DIH        -0.3860
      7 C2'        56.2120   17.6320   43.8270 C.3       1 DIH        -0.0040
      8 N1'        57.3550   17.0200   43.2100 N.4       1 DIH         0.2441
      9 C10        57.5110   17.2290   41.7890 C.3       1 DIH        -0.0144
     10 C9         56.6420   16.7970   40.6660 C.2       1 DIH         0.0001
     11 C8         56.7440   15.6870   39.8370 C.2       1 DIH         0.0220
     12 N7         55.8070   15.5800   38.9250 N.pl3     1 DIH        -0.2895
     13 C5         54.9980   16.6890   39.1290 C.2       1 DIH         0.1348
     14 C6         53.7860   17.1310   38.4300 C.2       1 DIH         0.2413
     15 O6         53.2380   16.5700   37.4840 O.2       1 DIH        -0.4013
     16 N1         53.2170   18.3510   38.9360 N.am      1 DIH        -0.2067
     17 C2         53.7530   19.1040   40.0300 C.2       1 DIH         0.1146
     18 N3         54.9020   18.6860   40.6950 N.2       1 DIH        -0.3199
     19 C4         55.4900   17.4660   40.2070 C.2       1 DIH         0.0180
     20 H1         53.8579   13.3919   43.9473 H         1 DIH         0.2094
     21 H2         54.4102   14.9737   45.4201 H         1 DIH         0.0562
     22 H3         54.4561   15.5281   43.7121 H         1 DIH         0.0562
     23 H4         56.7877   15.0702   45.5191 H         1 DIH         0.0402
     24 H5         56.4721   15.1928   42.6748 H         1 DIH         0.0819
     25 H6         57.9751   15.0638   43.6500 H         1 DIH         0.0819
     26 H7         55.0426   17.1886   45.5296 H         1 DIH         0.0652
     27 H8         56.7450   16.9312   46.9966 H         1 DIH         0.2100
     28 H9         56.3654   18.7179   43.9123 H         1 DIH         0.0840
     29 H10        55.3098   17.4350   43.2293 H         1 DIH         0.0840
     30 H11        58.2035   17.3168   43.6660 H         1 DIH         0.2042
     31 H12        58.4912   16.7869   41.5572 H         1 DIH         0.0898
     32 H13        57.5672   18.3223   41.6816 H         1 DIH         0.0898
     33 H14        57.5456   14.9568   39.9371 H         1 DIH         0.0779
     34 H15        55.6967   14.8399   38.2172 H         1 DIH         0.2273
     35 H16        52.3899   18.6975   38.4934 H         1 DIH         0.2519
     36 H17        53.2535   20.0184   40.3467 H         1 DIH         0.1426
@<TRIPOS>BOND
     1    1    2 1  
     2    2    3 1  
     3    3    4 1  
     4    3    5 1  
     5    4    8 1  
     6    5    6 1  
     7    5    7 1  
     8    7    8 1  
     9    8    9 1  
    10    9   10 1  
    11   10   11 2  
    12   10   19 1  
    13   11   12 1  
    14   12   13 1  
    15   13   14 1  
    16   13   19 2  
    17   14   15 2  
    18   14   16 am 
    19   16   17 am 
    20   17   18 2  
    21   18   19 1  
    22    1   20 1  
    23    2   21 1  
    24    2   22 1  
    25    3   23 1  
    26    4   24 1  
    27    4   25 1  
    28    5   26 1  
    29    6   27 1  
    30    7   28 1  
    31    7   29 1  
    32    8   30 1  
    33    9   31 1  
    34    9   32 1  
    35   11   33 1  
    36   12   34 1  
    37   16   35 1  
    38   17   36 1  
@<TRIPOS>SUBSTRUCTURE
     1 DIH         1

