### 
### Created by X-TOOL on Sun Sep  9 21:50:04 2018
### 

@<TRIPOS>MOLECULE
1n3w_ligand
   45    46     1     0     0
SMALL
GAST_HUCK


@<TRIPOS>ATOM
      1 C1        113.0970   31.5320   22.6810 C.3       1 NON         0.1884
      2 C2        113.9960   30.4370   22.0870 C.3       1 NON         0.1341
      3 C3        115.4480   30.9430   22.1000 C.3       1 NON         0.1141
      4 C4        115.5440   32.2230   21.2760 C.3       1 NON         0.1119
      5 C5        114.5600   33.2570   21.8170 C.3       1 NON         0.1130
      6 C6        114.5100   34.4890   20.9370 C.3       1 NON         0.0730
      7 O1        113.4690   31.7870   24.0220 O.3       1 NON        -0.3401
      8 O2        113.8760   29.2370   22.8370 O.3       1 NON        -0.3841
      9 O3        116.3250   29.9670   21.5730 O.3       1 NON        -0.3864
     10 O4        116.8630   32.7370   21.3430 O.3       1 NON        -0.3865
     11 O5        113.2210   32.6980   21.8660 O.3       1 NON        -0.3405
     12 O6        113.8560   35.5660   21.5940 O.3       1 NON        -0.3924
     13 C1'       111.8420   31.5770   27.8970 C.3       1 NON         0.1854
     14 C2'       111.5170   30.4090   26.9570 C.3       1 NON         0.1339
     15 C3'       112.4320   30.4220   25.7250 C.3       1 NON         0.1144
     16 C4'       112.4390   31.7840   25.0380 C.3       1 NON         0.1184
     17 C5'       112.7400   32.8800   26.0840 C.3       1 NON         0.1134
     18 C6'       112.6580   34.2900   25.5140 C.3       1 NON         0.0730
     19 O1'       113.1140   31.4280   28.4040 O.3       1 NON        -0.3649
     20 O2'       111.6790   29.1820   27.6570 O.3       1 NON        -0.3841
     21 O3'       112.0080   29.4350   24.7980 O.3       1 NON        -0.3864
     22 O5'       111.7960   32.8180   27.1870 O.3       1 NON        -0.3407
     23 O6'       113.4460   35.2010   26.2730 O.3       1 NON        -0.3924
     24 H1        112.0505   31.1935   22.6648 H         1 NON         0.0938
     25 H2        113.6904   30.2390   21.0490 H         1 NON         0.0671
     26 H3        115.7408   31.1598   23.1379 H         1 NON         0.0648
     27 H4        115.2952   31.9992   20.2282 H         1 NON         0.0647
     28 H5        114.8741   33.5475   22.8304 H         1 NON         0.0647
     29 H6        113.9635   34.2478   20.0133 H         1 NON         0.0584
     30 H7        115.5372   34.7926   20.6867 H         1 NON         0.0584
     31 H8        114.4374   28.5707   22.4583 H         1 NON         0.2101
     32 H9        116.0853   29.7804   20.6729 H         1 NON         0.2100
     33 H10       117.4713   32.0901   21.0053 H         1 NON         0.2100
     34 H11       114.3261   35.7818   22.3908 H         1 NON         0.2095
     35 H12       111.1125   31.5944   28.7201 H         1 NON         0.0935
     36 H13       110.4724   30.4999   26.6245 H         1 NON         0.0671
     37 H14       113.4565   30.1891   26.0508 H         1 NON         0.0648
     38 H15       111.4594   31.9734   24.5750 H         1 NON         0.0651
     39 H16       113.7570   32.7122   26.4681 H         1 NON         0.0647
     40 H17       111.6097   34.6229   25.5306 H         1 NON         0.0584
     41 H18       113.0229   34.2789   24.4763 H         1 NON         0.0584
     42 H19       113.3068   32.1505   28.9898 H         1 NON         0.2126
     43 H20       111.4495   28.4595   27.0846 H         1 NON         0.2101
     44 H21       112.6059   29.4177   24.0599 H         1 NON         0.2100
     45 H22       113.3756   36.0698   25.8952 H         1 NON         0.2095
@<TRIPOS>BOND
     1    1    2 1  
     2    7    1 1  
     3    1   11 1  
     4    2    3 1  
     5    2    8 1  
     6    3    4 1  
     7    3    9 1  
     8    5    4 1  
     9    4   10 1  
    10    5    6 1  
    11   11    5 1  
    12    6   12 1  
    13   16    7 1  
    14   14   13 1  
    15   13   19 1  
    16   13   22 1  
    17   15   14 1  
    18   14   20 1  
    19   15   16 1  
    20   15   21 1  
    21   16   17 1  
    22   17   18 1  
    23   17   22 1  
    24   18   23 1  
    25    1   24 1  
    26    2   25 1  
    27    3   26 1  
    28    4   27 1  
    29    5   28 1  
    30    6   29 1  
    31    6   30 1  
    32    8   31 1  
    33    9   32 1  
    34   10   33 1  
    35   12   34 1  
    36   13   35 1  
    37   14   36 1  
    38   15   37 1  
    39   16   38 1  
    40   17   39 1  
    41   18   40 1  
    42   18   41 1  
    43   19   42 1  
    44   20   43 1  
    45   21   44 1  
    46   23   45 1  
@<TRIPOS>SUBSTRUCTURE
     1 NON         1

