### 
### Created by X-TOOL on Mon Sep 10 21:12:50 2018
### 

@<TRIPOS>MOLECULE
1n43_ligand
   31    32     1     0     0
SMALL
GAST_HUCK


@<TRIPOS>ATOM
      1 C11         6.4620  -16.3600   24.7060 C.2       1 BTN         0.0348
      2 O11         5.9640  -15.2510   25.0220 O.co2     1 BTN        -0.5690
      3 O12         5.9560  -17.0760   23.8040 O.co2     1 BTN        -0.5690
      4 C10         7.6700  -16.7890   25.4510 C.3       1 BTN         0.0002
      5 C9          8.5460  -15.6250   25.9020 C.3       1 BTN        -0.0414
      6 C8          8.9690  -14.7510   24.7220 C.3       1 BTN        -0.0505
      7 C7         10.1490  -13.8000   25.0530 C.3       1 BTN        -0.0389
      8 C2         10.7860  -13.0660   23.8940 C.3       1 BTN         0.0302
      9 S1         11.9910  -14.0020   22.8870 S.3       1 BTN        -0.1527
     10 C6         12.3740  -12.4820   21.9520 C.3       1 BTN         0.0190
     11 C5         12.4060  -11.3560   22.9710 C.3       1 BTN         0.0750
     12 N1         13.6860  -11.1820   23.6210 N.am      1 BTN        -0.2671
     13 C3         13.6230  -11.4040   24.9380 C.2       1 BTN         0.2580
     14 O3         14.5770  -11.3060   25.7460 O.2       1 BTN        -0.4008
     15 N2         12.3540  -11.7180   25.2760 N.am      1 BTN        -0.2668
     16 C4         11.4590  -11.7300   24.1320 C.3       1 BTN         0.0775
     17 H1          8.2676  -17.4437   24.7997 H         1 BTN         0.0430
     18 H2          7.3501  -17.3504   26.3412 H         1 BTN         0.0430
     19 H3          9.4465  -16.0243   26.3916 H         1 BTN         0.0283
     20 H4          7.9816  -15.0096   26.6180 H         1 BTN         0.0283
     21 H5          8.1068  -14.1423   24.4119 H         1 BTN         0.0267
     22 H6          9.2719  -15.4072   23.8927 H         1 BTN         0.0267
     23 H7         10.9335  -14.4006   25.5367 H         1 BTN         0.0277
     24 H8          9.7774  -13.0440   25.7604 H         1 BTN         0.0277
     25 H9          9.9336  -12.8534   23.2321 H         1 BTN         0.0435
     26 H10        11.5963  -12.2919   21.1977 H         1 BTN         0.0399
     27 H11        13.3512  -12.5753   21.4557 H         1 BTN         0.0399
     28 H12        12.0963  -10.4185   22.4861 H         1 BTN         0.0584
     29 H13        14.5239  -10.9246   23.1397 H         1 BTN         0.1849
     30 H14        12.0624  -11.9200   26.2110 H         1 BTN         0.1849
     31 H15        10.6772  -10.9661   24.2552 H         1 BTN         0.0587
@<TRIPOS>BOND
     1    1    2 ar 
     2    1    3 ar 
     3    1    4 1  
     4    4    5 1  
     5    5    6 1  
     6    6    7 1  
     7    7    8 1  
     8    8    9 1  
     9    8   16 1  
    10    9   10 1  
    11   10   11 1  
    12   11   12 1  
    13   11   16 1  
    14   12   13 am 
    15   13   14 2  
    16   13   15 am 
    17   15   16 1  
    18    4   17 1  
    19    4   18 1  
    20    5   19 1  
    21    5   20 1  
    22    6   21 1  
    23    6   22 1  
    24    7   23 1  
    25    7   24 1  
    26    8   25 1  
    27   10   26 1  
    28   10   27 1  
    29   11   28 1  
    30   12   29 1  
    31   15   30 1  
    32   16   31 1  
@<TRIPOS>SUBSTRUCTURE
     1 BTN         1

