### 
### Created by X-TOOL on Mon Sep 10 21:12:50 2018
### 

@<TRIPOS>MOLECULE
1n46_ligand
   48    50     1     0     0
SMALL
GAST_HUCK


@<TRIPOS>ATOM
      1 O9         17.2230    5.2550    6.1390 O.2       1 PFA        -0.3738
      2 C14        18.0230    4.3770    6.2680 C.2       1 PFA         0.3656
      3 N6         17.9770    3.3560    7.1890 N.am      1 PFA        -0.1738
      4 C10        18.9470    2.3970    7.2460 C.2       1 PFA         0.2308
      5 O8         18.9550    1.4890    8.0470 O.2       1 PFA        -0.3880
      6 N5         19.0230    4.4100    5.4000 N.am      1 PFA        -0.0794
      7 N3         20.0320    3.4130    5.4060 N.2       1 PFA        -0.1370
      8 C17        20.0190    2.4460    6.2520 C.2       1 PFA         0.1113
      9 C4         19.2990    5.4070    4.4430 C.ar      1 PFA         0.0973
     10 C5         20.4930    6.1760    4.7530 C.ar      1 PFA        -0.0432
     11 C6         20.8590    7.2330    3.8770 C.ar      1 PFA        -0.0276
     12 C7         22.0400    8.0590    4.1150 C.3       1 PFA        -0.0365
     13 C3         18.5530    5.7190    3.3210 C.ar      1 PFA        -0.0432
     14 C2         18.9560    6.7020    2.3970 C.ar      1 PFA        -0.0276
     15 C19        18.0880    7.0200    1.1620 C.3       1 PFA        -0.0365
     16 C1         20.1030    7.4820    2.6960 C.ar      1 PFA         0.1043
     17 O20        20.3800    8.5040    1.8130 O.3       1 PFA        -0.2814
     18 C21        21.4190    8.3390    0.9100 C.ar      1 PFA         0.0920
     19 C31        21.6800    7.0750    0.2610 C.ar      1 PFA        -0.0451
     20 C22        22.2200    9.5120    0.6640 C.ar      1 PFA        -0.0362
     21 C24        23.2950    9.4250   -0.2570 C.ar      1 PFA        -0.0191
     22 C25        24.2110   10.6460   -0.5040 C.3       1 PFA        -0.0171
     23 C8         23.2930   11.8890   -0.7160 C.3       1 PFA        -0.0545
     24 C9         25.0970   10.7800    0.7600 C.3       1 PFA        -0.0545
     25 C26        23.5830    8.1750   -0.8550 C.ar      1 PFA         0.0785
     26 C29        22.7560    7.0450   -0.6370 C.ar      1 PFA        -0.0476
     27 O27        24.6370    8.0360   -1.7310 O.3       1 PFA        -0.3439
     28 H1         17.2133    3.3153    7.8333 H         1 PFA         0.2277
     29 H2         20.7908    1.6781    6.2294 H         1 PFA         0.0812
     30 H3         21.0887    5.9489    5.6297 H         1 PFA         0.0396
     31 H4         22.5175    7.7531    5.0576 H         1 PFA         0.0367
     32 H5         21.7412    9.1155    4.1814 H         1 PFA         0.0367
     33 H6         22.7507    7.9304    3.2853 H         1 PFA         0.0367
     34 H7         17.6244    5.1875    3.1467 H         1 PFA         0.0396
     35 H8         17.2531    6.3059    1.1069 H         1 PFA         0.0367
     36 H9         18.7009    6.9384    0.2522 H         1 PFA         0.0367
     37 H10        17.6910    8.0424    1.2462 H         1 PFA         0.0367
     38 H11        21.0760    6.1966    0.4579 H         1 PFA         0.0464
     39 H12        22.0045   10.4440    1.1739 H         1 PFA         0.0459
     40 H13        24.8414   10.4932   -1.3924 H         1 PFA         0.0432
     41 H14        23.9154   12.7782   -0.8949 H         1 PFA         0.0252
     42 H15        22.6770   12.0472    0.1815 H         1 PFA         0.0252
     43 H16        22.6393   11.7183   -1.5841 H         1 PFA         0.0252
     44 H17        25.7236    9.8821    0.8654 H         1 PFA         0.0252
     45 H18        24.4560   10.8860    1.6476 H         1 PFA         0.0252
     46 H19        25.7405   11.6670    0.6644 H         1 PFA         0.0252
     47 H20        22.9616    6.1301   -1.1809 H         1 PFA         0.0496
     48 H21        24.3051    7.7992   -2.5890 H         1 PFA         0.2421
@<TRIPOS>BOND
     1    1    2 2  
     2    2    3 am 
     3    2    6 am 
     4    3    4 am 
     5    4    5 2  
     6    4    8 1  
     7    6    7 1  
     8    6    9 1  
     9    7    8 2  
    10    9   10 ar 
    11    9   13 ar 
    12   10   11 ar 
    13   11   12 1  
    14   11   16 ar 
    15   13   14 ar 
    16   14   15 1  
    17   14   16 ar 
    18   16   17 1  
    19   17   18 1  
    20   18   19 ar 
    21   18   20 ar 
    22   19   26 ar 
    23   20   21 ar 
    24   21   22 1  
    25   21   25 ar 
    26   22   23 1  
    27   22   24 1  
    28   25   26 ar 
    29   25   27 1  
    30    3   28 1  
    31    8   29 1  
    32   10   30 1  
    33   12   31 1  
    34   12   32 1  
    35   12   33 1  
    36   13   34 1  
    37   15   35 1  
    38   15   36 1  
    39   15   37 1  
    40   19   38 1  
    41   20   39 1  
    42   22   40 1  
    43   23   41 1  
    44   23   42 1  
    45   23   43 1  
    46   24   44 1  
    47   24   45 1  
    48   24   46 1  
    49   26   47 1  
    50   27   48 1  
@<TRIPOS>SUBSTRUCTURE
     1 PFA         1

