### 
### Created by X-TOOL on Mon Sep 10 21:12:50 2018
### 

@<TRIPOS>MOLECULE
1n4h_ligand
   49    49     1     0     0
SMALL
GAST_HUCK


@<TRIPOS>ATOM
      1 C1         22.6760   32.3860    7.5850 C.3       1 REA        -0.0859
      2 C2         21.9060   33.5740    6.8750 C.3       1 REA        -0.0979
      3 C3         21.6370   33.4550    5.3740 C.3       1 REA        -0.0377
      4 C4         22.7900   32.9260    4.5060 C.3       1 REA         0.0374
      5 C5         23.8910   32.0960    5.2550 C.2       1 REA         0.0256
      6 C6         23.8620   31.8350    6.6380 C.2       1 REA        -0.0437
      7 C7         24.9190   31.0450    7.3340 C.2       1 REA        -0.0588
      8 C8         25.0460   29.7100    7.5730 C.2       1 REA        -0.0502
      9 C9         26.0800   29.0940    8.3970 C.2       1 REA        -0.0405
     10 C10        26.0660   27.7250    8.5310 C.2       1 REA        -0.0599
     11 C11        27.0510   27.0180    9.3290 C.2       1 REA        -0.0707
     12 C12        27.0700   25.6940    9.4400 C.2       1 REA        -0.0643
     13 C13        28.0570   24.9770   10.2420 C.2       1 REA        -0.0561
     14 C14        27.9510   23.6260   10.2240 C.2       1 REA        -0.0506
     15 C15        28.7050   22.5640   10.8700 C.2       1 REA         0.0296
     16 C16        21.6500   31.2540    7.8880 C.3       1 REA        -0.1147
     17 C17        23.2350   32.9900    8.9100 C.3       1 REA        -0.1147
     18 C18        24.9480   31.6510    4.2340 C.3       1 REA         0.0277
     19 C19        27.1570   29.9910    9.0840 C.3       1 REA        -0.0264
     20 C20        29.1590   25.7760   11.0430 C.3       1 REA        -0.0316
     21 O1         28.3770   21.4240   10.6260 O.co2     1 REA        -0.5736
     22 O2         29.6410   22.7790   11.6280 O.co2     1 REA        -0.5736
     23 H1         22.4982   34.4878    7.0304 H         1 REA         0.0079
     24 H2         20.9320   33.6787    7.3753 H         1 REA         0.0079
     25 H3         21.3721   34.4559    5.0024 H         1 REA         0.0309
     26 H4         20.7815   32.7764    5.2414 H         1 REA         0.0309
     27 H5         23.2818   33.7907    4.0366 H         1 REA         0.0731
     28 H6         22.3563   32.2828    3.7261 H         1 REA         0.0731
     29 H7         25.7399   31.6461    7.7223 H         1 REA         0.0700
     30 H8         24.3153   29.0480    7.1107 H         1 REA         0.0582
     31 H9         25.2912   27.1534    8.0221 H         1 REA         0.0490
     32 H10        27.8060   27.5969    9.8589 H         1 REA         0.0644
     33 H11        26.3146   25.1172    8.9083 H         1 REA         0.0493
     34 H12        27.1364   23.2624    9.5994 H         1 REA         0.0350
     35 H13        22.1637   30.4163    8.3824 H         1 REA         0.0039
     36 H14        21.2010   30.9045    6.9466 H         1 REA         0.0039
     37 H15        20.8608   31.6417    8.5490 H         1 REA         0.0039
     38 H16        23.9565   33.7862    8.6743 H         1 REA         0.0039
     39 H17        23.7362   32.2010    9.4899 H         1 REA         0.0039
     40 H18        22.4066   33.4088    9.5002 H         1 REA         0.0039
     41 H19        25.7280   31.0671    4.7446 H         1 REA         0.0697
     42 H20        25.4011   32.5371    3.7654 H         1 REA         0.0697
     43 H21        24.4723   31.0300    3.4607 H         1 REA         0.0697
     44 H22        26.9681   31.0459    8.8359 H         1 REA         0.0424
     45 H23        28.1565   29.7034    8.7258 H         1 REA         0.0424
     46 H24        27.1054   29.8560   10.1744 H         1 REA         0.0424
     47 H25        29.0169   26.8553   10.8849 H         1 REA         0.0404
     48 H26        30.1571   25.4816   10.6866 H         1 REA         0.0404
     49 H27        29.0705   25.5478   12.1154 H         1 REA         0.0404
@<TRIPOS>BOND
     1    1    2 1  
     2    1    6 1  
     3    1   16 1  
     4    1   17 1  
     5    2    3 1  
     6    3    4 1  
     7    4    5 1  
     8    5    6 2  
     9    5   18 1  
    10    6    7 1  
    11    7    8 2  
    12    8    9 1  
    13    9   10 2  
    14    9   19 1  
    15   10   11 1  
    16   11   12 2  
    17   12   13 1  
    18   13   14 2  
    19   13   20 1  
    20   14   15 1  
    21   15   21 ar 
    22   15   22 ar 
    23    2   23 1  
    24    2   24 1  
    25    3   25 1  
    26    3   26 1  
    27    4   27 1  
    28    4   28 1  
    29    7   29 1  
    30    8   30 1  
    31   10   31 1  
    32   11   32 1  
    33   12   33 1  
    34   14   34 1  
    35   16   35 1  
    36   16   36 1  
    37   16   37 1  
    38   17   38 1  
    39   17   39 1  
    40   17   40 1  
    41   18   41 1  
    42   18   42 1  
    43   18   43 1  
    44   19   44 1  
    45   19   45 1  
    46   19   46 1  
    47   20   47 1  
    48   20   48 1  
    49   20   49 1  
@<TRIPOS>SUBSTRUCTURE
     1 REA         1

