### 
### Created by X-TOOL on Mon Sep 10 21:12:49 2018
### 

@<TRIPOS>MOLECULE
1n51_ligand
   67    69     1     0     0
SMALL
GAST_HUCK


@<TRIPOS>ATOM
      1 O1         30.5070   56.4660   44.1810 O.3       1 01B        -0.3664
      2 C1         29.1140   56.2440   43.9060 C.3       1 01B         0.1884
      3 CB         26.8820   55.6350   44.9100 C.3       1 01B         0.0287
      4 CG         25.8750   55.9580   46.0010 C.ar      1 01B        -0.0374
      5 CD1        25.8720   57.2040   46.6320 C.ar      1 01B        -0.0601
      6 CD2        24.8820   55.0410   46.3410 C.ar      1 01B        -0.0601
      7 CE1        24.8920   57.5300   47.5780 C.ar      1 01B        -0.0686
      8 CE2        23.8970   55.3570   47.2850 C.ar      1 01B        -0.0686
      9 CZ         23.9040   56.6070   47.9030 C.ar      1 01B        -0.0687
     10 C          28.5640   57.3960   43.0800 C.2       1 01B         0.2155
     11 O          28.3830   58.5060   43.5830 O.2       1 01B        -0.3936
     12 N          28.9930   55.1050   46.1170 N.4       1 01B         0.2258
     13 CA         28.3200   56.0920   45.2160 C.3       1 01B         0.0291
     14 N1         28.2930   57.1370   41.7900 N.am      1 PRO        -0.2494
     15 CA1        27.7680   58.1280   40.8520 C.3       1 PRO         0.1340
     16 C2         26.7750   59.1140   41.4470 C.2       1 PRO         0.2066
     17 O2         25.6580   58.7530   41.8120 O.2       1 PRO        -0.3942
     18 CB1        27.1690   57.2630   39.7590 C.3       1 PRO        -0.0104
     19 CG1        28.1680   56.1520   39.6790 C.3       1 PRO        -0.0281
     20 CD         28.3830   55.8130   41.1430 C.3       1 PRO         0.0370
     21 N2         27.1770   60.3900   41.5290 N.am      1 PRO        -0.2498
     22 CA2        26.3950   61.5030   42.0650 C.3       1 PRO         0.1338
     23 C3         24.8920   61.3880   41.8010 C.2       1 PRO         0.2041
     24 O3         24.4480   61.4410   40.6590 O.2       1 PRO        -0.3944
     25 CB2        27.0150   62.7050   41.3670 C.3       1 PRO        -0.0104
     26 CG2        28.4480   62.3320   41.3110 C.3       1 PRO        -0.0281
     27 CD3        28.3780   60.9010   40.8430 C.3       1 PRO         0.0369
     28 N3         24.1190   61.2300   42.8700 N.am      1 ALA        -0.2640
     29 CA3        22.6710   61.1170   42.7670 C.3       1 ALA         0.1279
     30 C4         22.0220   62.4330   43.2010 C.2       1 ALA         0.1989
     31 O4         21.7630   63.3190   42.3760 O.2       1 ALA        -0.3947
     32 CB3        22.1730   59.9770   43.6270 C.3       1 ALA        -0.0244
     33 N4         21.7690   62.5850   44.4940 N.am      1 NH2        -0.2990
     34 H1         30.9851   56.5231   43.3621 H         1 01B         0.2136
     35 H2         29.0130   55.3146   43.3264 H         1 01B         0.0898
     36 H3         26.5545   56.1278   43.9827 H         1 01B         0.0484
     37 H4         26.8916   54.5450   44.7624 H         1 01B         0.0484
     38 H5         26.6392   57.9292   46.3860 H         1 01B         0.0557
     39 H6         24.8719   54.0664   45.8666 H         1 01B         0.0557
     40 H7         24.9037   58.5023   48.0571 H         1 01B         0.0599
     41 H8         23.1310   54.6317   47.5347 H         1 01B         0.0599
     42 H9         23.1431   56.8579   48.6331 H         1 01B         0.0559
     43 H10        29.9329   55.4135   46.3108 H         1 01B         0.2001
     44 H11        29.0214   54.2037   45.6665 H         1 01B         0.2001
     45 H12        28.4782   55.0330   46.9806 H         1 01B         0.2001
     46 H13        28.2825   57.0672   45.7236 H         1 01B         0.0926
     47 H14        28.6025   58.7155   40.4416 H         1 PRO         0.0802
     48 H15        27.0984   57.8095   38.8070 H         1 PRO         0.0313
     49 H16        26.1739   56.8893   40.0420 H         1 PRO         0.0313
     50 H17        29.1022   56.4882   39.2055 H         1 PRO         0.0287
     51 H18        27.7650   55.2915   39.1248 H         1 PRO         0.0287
     52 H19        27.6005   55.1346   41.5137 H         1 PRO         0.0524
     53 H20        29.3707   55.3568   41.3052 H         1 PRO         0.0524
     54 H21        26.5442   61.5761   43.1524 H         1 PRO         0.0802
     55 H22        26.8654   63.6255   41.9503 H         1 PRO         0.0313
     56 H23        26.5983   62.8385   40.3578 H         1 PRO         0.0313
     57 H24        28.9199   62.4063   42.3018 H         1 PRO         0.0287
     58 H25        28.9975   62.9607   40.5950 H         1 PRO         0.0287
     59 H26        28.2631   60.8469   39.7504 H         1 PRO         0.0524
     60 H27        29.2752   60.3411   41.1455 H         1 PRO         0.0524
     61 H28        24.5450   61.1873   43.7737 H         1 ALA         0.1883
     62 H29        22.4020   60.9147   41.7198 H         1 ALA         0.0797
     63 H30        21.0790   59.9029   43.5400 H         1 ALA         0.0277
     64 H31        22.4456   60.1630   44.6763 H         1 ALA         0.0277
     65 H32        22.6321   59.0359   43.2902 H         1 ALA         0.0277
     66 H33        21.3455   63.4283   44.8249 H         1 NH2         0.1815
     67 H34        22.0017   61.8563   45.1381 H         1 NH2         0.1815
@<TRIPOS>BOND
     1    2    1 1  
     2    2   10 1  
     3   13    2 1  
     4    3    4 1  
     5   13    3 1  
     6    4    5 ar 
     7    4    6 ar 
     8    5    7 ar 
     9    6    8 ar 
    10    7    9 ar 
    11    8    9 ar 
    12   10   11 2  
    13   10   14 am 
    14   14   15 1  
    15   14   20 1  
    16   15   16 1  
    17   15   18 1  
    18   16   17 2  
    19   16   21 am 
    20   18   19 1  
    21   19   20 1  
    22   21   22 1  
    23   21   27 1  
    24   22   23 1  
    25   22   25 1  
    26   23   24 2  
    27   23   28 am 
    28   25   26 1  
    29   26   27 1  
    30   28   29 1  
    31   29   30 1  
    32   29   32 1  
    33   30   31 2  
    34   30   33 am 
    35   13   12 1  
    36    1   34 1  
    37    2   35 1  
    38    3   36 1  
    39    3   37 1  
    40    5   38 1  
    41    6   39 1  
    42    7   40 1  
    43    8   41 1  
    44    9   42 1  
    45   12   43 1  
    46   12   44 1  
    47   12   45 1  
    48   13   46 1  
    49   15   47 1  
    50   18   48 1  
    51   18   49 1  
    52   19   50 1  
    53   19   51 1  
    54   20   52 1  
    55   20   53 1  
    56   22   54 1  
    57   25   55 1  
    58   25   56 1  
    59   26   57 1  
    60   26   58 1  
    61   27   59 1  
    62   27   60 1  
    63   28   61 1  
    64   29   62 1  
    65   32   63 1  
    66   32   64 1  
    67   32   65 1  
    68   33   66 1  
    69   33   67 1  
@<TRIPOS>SUBSTRUCTURE
     1 01B         1

