### 
### Created by X-TOOL on Mon Sep 10 21:12:50 2018
### 

@<TRIPOS>MOLECULE
1n5r_ligand
   65    68     1     0     0
SMALL
GAST_HUCK


@<TRIPOS>ATOM
      1 C16        37.7270   25.7720    9.6930 C.ar      1 PRM        -0.0155
      2 C17        38.5070   25.9530    8.5220 C.ar      1 PRM         0.0430
      3 C18        37.9990   25.3130    7.2970 C.ar      1 PRM         0.0550
      4 C19        36.7830   24.5360    7.4160 C.ar      1 PRM         0.0294
      5 C20        36.0520   24.3800    8.6280 C.ar      1 PRM         0.1071
      6 C21        36.5280   25.0080    9.7760 C.ar      1 PRM         0.0089
      7 C22        38.7710   25.4390    6.0780 C.ar      1 PRM         0.0662
      8 N23        40.0890   26.0240    6.0380 N.ar      1 PRM        -0.3455
      9 C24        40.6130   26.4850    7.2640 C.ar      1 PRM         0.0525
     10 C25        39.8280   26.4930    8.5180 C.ar      1 PRM         0.0421
     11 C26        41.9710   26.9530    7.3720 C.ar      1 PRM         0.0074
     12 C27        42.5880   27.3950    8.5610 C.ar      1 PRM         0.0861
     13 C28        41.8380   27.3910    9.7500 C.ar      1 PRM         0.0015
     14 C29        40.4810   26.9420    9.6960 C.ar      1 PRM        -0.0178
     15 C30        38.1720   24.9630    4.7860 C.ar      1 PRM         0.0197
     16 C31        37.4700   25.9030    3.9520 C.ar      1 PRM        -0.0393
     17 C32        36.9300   25.4790    2.7010 C.ar      1 PRM        -0.0505
     18 C33        37.0820   24.1350    2.2830 C.ar      1 PRM        -0.0518
     19 C34        37.7740   23.2090    3.1140 C.ar      1 PRM        -0.0505
     20 C35        38.3170   23.6220    4.3630 C.ar      1 PRM        -0.0393
     21 N36        34.8710   23.6100    8.7040 N.pl3     1 PRM        -0.3022
     22 N37        43.9150   27.8450    8.5850 N.pl3     1 PRM        -0.3098
     23 C41        40.8940   26.1870    4.7410 C.3       1 PRM         0.0121
     24 C42        41.8340   25.0630    4.3160 C.3       1 PRM        -0.0002
     25 C43        42.1940   25.1180    2.8320 C.3       1 PRM        -0.0293
     26 N44        43.5420   24.6440    2.2500 N.4       1 PRM         0.2408
     27 C44        43.5980   23.1200    2.2720 C.3       1 PRM        -0.0333
     28 C45        42.4540   22.1930    1.8450 C.3       1 PRM        -0.0244
     29 C46        44.6990   25.1500    3.0760 C.3       1 PRM        -0.0413
     30 C47        43.6900   25.1220    0.8100 C.3       1 PRM        -0.0333
     31 C48        44.9670   25.0450   -0.0350 C.3       1 PRM        -0.0244
     32 H1         38.0722   26.2553   10.5998 H         1 PRM         0.0871
     33 H2         36.4058   24.0426    6.5276 H         1 PRM         0.0930
     34 H3         35.9956   24.9170   10.7159 H         1 PRM         0.0703
     35 H4         42.5669   26.9666    6.4666 H         1 PRM         0.0635
     36 H5         42.2773   27.7201   10.6848 H         1 PRM         0.0753
     37 H6         39.9117   26.9447   10.6185 H         1 PRM         0.0767
     38 H7         37.3517   26.9314    4.2737 H         1 PRM         0.0702
     39 H8         36.4033   26.1862    2.0706 H         1 PRM         0.0647
     40 H9         36.6726   23.8118    1.3327 H         1 PRM         0.0701
     41 H10        37.8883   22.1801    2.7925 H         1 PRM         0.0647
     42 H11        38.8411   22.9091    4.9892 H         1 PRM         0.0702
     43 H12        34.5076   23.1400    7.8626 H         1 PRM         0.2004
     44 H13        34.3728   23.5183    9.6008 H         1 PRM         0.2004
     45 H14        44.4723   27.8516    7.7188 H         1 PRM         0.1952
     46 H15        44.3330   28.1691    9.4688 H         1 PRM         0.1952
     47 H16        41.5045   27.0954    4.8508 H         1 PRM         0.0419
     48 H17        40.1693   26.3286    3.9257 H         1 PRM         0.0419
     49 H18        41.3453   24.0996    4.5231 H         1 PRM         0.0328
     50 H19        42.7601   25.1384    4.9048 H         1 PRM         0.0328
     51 H20        42.1000   26.1749    2.5420 H         1 PRM         0.0815
     52 H21        41.4230   24.5264    2.3167 H         1 PRM         0.0815
     53 H22        43.8214   22.8495    3.3145 H         1 PRM         0.0812
     54 H23        44.4504   22.8483    1.6320 H         1 PRM         0.0812
     55 H24        42.7676   21.1453    1.9630 H         1 PRM         0.0281
     56 H25        42.2013   22.3837    0.7915 H         1 PRM         0.0281
     57 H26        41.5723   22.3848    2.4741 H         1 PRM         0.0281
     58 H27        44.6910   26.2499    3.0831 H         1 PRM         0.0778
     59 H28        45.6441   24.7930    2.6408 H         1 PRM         0.0778
     60 H29        44.6053   24.7760    4.1062 H         1 PRM         0.0778
     61 H30        43.4207   26.1883    0.8303 H         1 PRM         0.0812
     62 H31        42.9326   24.5633    0.2407 H         1 PRM         0.0812
     63 H32        44.7724   25.4654   -1.0327 H         1 PRM         0.0281
     64 H33        45.2783   23.9947   -0.1341 H         1 PRM         0.0281
     65 H34        45.7665   25.6197    0.4555 H         1 PRM         0.0281
@<TRIPOS>BOND
     1    2    1 ar 
     2    1    6 ar 
     3    2    3 ar 
     4    2   10 ar 
     5    3    4 ar 
     6    3    7 ar 
     7    4    5 ar 
     8    5    6 ar 
     9    5   21 1  
    10    7    8 ar 
    11    7   15 1  
    12    8    9 ar 
    13    8   23 1  
    14    9   10 ar 
    15    9   11 ar 
    16   10   14 ar 
    17   11   12 ar 
    18   12   13 ar 
    19   12   22 1  
    20   14   13 ar 
    21   15   16 ar 
    22   15   20 ar 
    23   16   17 ar 
    24   17   18 ar 
    25   18   19 ar 
    26   20   19 ar 
    27   23   24 1  
    28   24   25 1  
    29   25   26 1  
    30   26   27 1  
    31   26   29 1  
    32   26   30 1  
    33   27   28 1  
    34   30   31 1  
    35    1   32 1  
    36    4   33 1  
    37    6   34 1  
    38   11   35 1  
    39   13   36 1  
    40   14   37 1  
    41   16   38 1  
    42   17   39 1  
    43   18   40 1  
    44   19   41 1  
    45   20   42 1  
    46   21   43 1  
    47   21   44 1  
    48   22   45 1  
    49   22   46 1  
    50   23   47 1  
    51   23   48 1  
    52   24   49 1  
    53   24   50 1  
    54   25   51 1  
    55   25   52 1  
    56   27   53 1  
    57   27   54 1  
    58   28   55 1  
    59   28   56 1  
    60   28   57 1  
    61   29   58 1  
    62   29   59 1  
    63   29   60 1  
    64   30   61 1  
    65   30   62 1  
    66   31   63 1  
    67   31   64 1  
    68   31   65 1  
@<TRIPOS>SUBSTRUCTURE
     1 PRM         1

