### 
### Created by X-TOOL on Mon Sep 10 21:12:50 2018
### 

@<TRIPOS>MOLECULE
1n7i_ligand
   25    26     1     0     0
SMALL
GAST_HUCK


@<TRIPOS>ATOM
      1 C1         28.7410   42.9880   18.6050 C.3       1 LY1        -0.0015
      2 N1         30.2040   42.9620   18.9620 N.4       1 LY1         0.2383
      3 C2         30.5990   44.0970   19.8420 C.3       1 LY1        -0.0307
      4 C3         30.5780   45.4320   19.1100 C.3       1 LY1        -0.0038
      5 C4         29.1820   45.8330   18.6630 C.3       1 LY1        -0.0165
      6 C4A        28.7280   45.1740   17.3900 C.ar      1 LY1        -0.0349
      7 C5         28.5330   45.9550   16.2670 C.ar      1 LY1        -0.0658
      8 C6         28.1150   45.3690   15.0850 C.ar      1 LY1        -0.0610
      9 C7         27.8760   43.9940   15.0050 C.ar      1 LY1         0.0405
     10 C8         28.0670   43.1600   16.1520 C.ar      1 LY1         0.0537
     11 C8A        28.5030   43.7870   17.3460 C.ar      1 LY1         0.0178
     12 CL1        27.4610   43.4860   13.6900 Cl        1 LY1        -0.0782
     13 CL2        27.7990   41.6700   16.1480 Cl        1 LY1        -0.0783
     14 H1         28.1774   43.4444   19.4321 H         1 LY1         0.0966
     15 H2         28.3911   41.9571   18.4477 H         1 LY1         0.0966
     16 H3         30.7445   43.0089   18.1125 H         1 LY1         0.2027
     17 H4         30.4043   42.0977   19.4405 H         1 LY1         0.2027
     18 H5         31.6170   43.9157   20.2173 H         1 LY1         0.0815
     19 H6         29.8994   44.1475   20.6893 H         1 LY1         0.0815
     20 H7         31.2238   45.3572   18.2227 H         1 LY1         0.0337
     21 H8         30.9687   46.2090   19.7835 H         1 LY1         0.0337
     22 H9         29.1683   46.9224   18.5111 H         1 LY1         0.0414
     23 H10        28.4742   45.5651   19.4612 H         1 LY1         0.0414
     24 H11        28.7070   47.0240   16.3117 H         1 LY1         0.0540
     25 H12        27.9704   45.9868   14.2061 H         1 LY1         0.0548
@<TRIPOS>BOND
     1    1    2 1  
     2    1   11 1  
     3    2    3 1  
     4    3    4 1  
     5    4    5 1  
     6    5    6 1  
     7    6    7 ar 
     8    6   11 ar 
     9    7    8 ar 
    10    8    9 ar 
    11    9   10 ar 
    12    9   12 1  
    13   10   11 ar 
    14   10   13 1  
    15    1   14 1  
    16    1   15 1  
    17    2   16 1  
    18    2   17 1  
    19    3   18 1  
    20    3   19 1  
    21    4   20 1  
    22    4   21 1  
    23    5   22 1  
    24    5   23 1  
    25    7   24 1  
    26    8   25 1  
@<TRIPOS>SUBSTRUCTURE
     1 LY1         1

