### 
### Created by X-TOOL on Mon Sep 10 21:12:50 2018
### 

@<TRIPOS>MOLECULE
1n7j_ligand
   22    23     1     0     0
SMALL
GAST_HUCK


@<TRIPOS>ATOM
      1 I          27.2250   42.7080   14.7090 I         1 IDI        -0.0570
      2 C4         28.6850   46.0030   17.0170 C.ar      1 IDI        -0.0635
      3 C5         28.0930   45.2320   16.0220 C.ar      1 IDI        -0.0645
      4 C6         28.0810   43.8470   16.1260 C.ar      1 IDI        -0.0041
      5 C7         28.6550   43.2510   17.2440 C.ar      1 IDI        -0.0508
      6 C8         29.2410   44.0130   18.2380 C.ar      1 IDI         0.0064
      7 C9         29.2610   45.3980   18.1250 C.ar      1 IDI        -0.0284
      8 C1         29.8120   43.3320   19.4510 C.3       1 IDI        -0.0014
      9 C2         29.7740   45.5420   20.5440 C.3       1 IDI        -0.0235
     10 C3         29.9300   46.2150   19.1920 C.3       1 IDI         0.0201
     11 N1         30.4600   44.2360   20.4170 N.4       1 IDI         0.2395
     12 H1         28.6964   47.0831   16.9263 H         1 IDI         0.0544
     13 H2         27.6398   45.7134   15.1630 H         1 IDI         0.0569
     14 H3         28.6428   42.1711   17.3377 H         1 IDI         0.0567
     15 H4         30.5596   42.5996   19.1126 H         1 IDI         0.0964
     16 H5         28.9936   42.8088   19.9672 H         1 IDI         0.0964
     17 H6         28.7097   45.3958   20.7802 H         1 IDI         0.0836
     18 H7         30.2446   46.1484   21.3319 H         1 IDI         0.0836
     19 H8         29.4690   47.2131   19.2278 H         1 IDI         0.0469
     20 H9         31.0000   46.3135   18.9567 H         1 IDI         0.0469
     21 H10        31.4080   44.4000   20.1163 H         1 IDI         0.2028
     22 H11        30.4666   43.7884   21.3201 H         1 IDI         0.2028
@<TRIPOS>BOND
     1    4    1 1  
     2    3    2 ar 
     3    2    7 ar 
     4    3    4 ar 
     5    4    5 ar 
     6    5    6 ar 
     7    6    7 ar 
     8    6    8 1  
     9    7   10 1  
    10    8   11 1  
    11   10    9 1  
    12    9   11 1  
    13    2   12 1  
    14    3   13 1  
    15    5   14 1  
    16    8   15 1  
    17    8   16 1  
    18    9   17 1  
    19    9   18 1  
    20   10   19 1  
    21   10   20 1  
    22   11   21 1  
    23   11   22 1  
@<TRIPOS>SUBSTRUCTURE
     1 IDI         1

