### 
### Created by X-TOOL on Mon Sep 10 21:12:50 2018
### 

@<TRIPOS>MOLECULE
1n8u_ligand
   39    38     1     0     0
SMALL
GAST_HUCK


@<TRIPOS>ATOM
      1 O1         15.5060    0.4920   -7.0240 O.3       1 BDD        -0.3950
      2 C1         15.2670    0.3800   -5.6160 C.3       1 BDD         0.0442
      3 C2         16.4650    0.9730   -4.8880 C.3       1 BDD        -0.0297
      4 C3         16.7210    0.3200   -3.5410 C.3       1 BDD        -0.0510
      5 C4         18.1880    0.0880   -3.3740 C.3       1 BDD        -0.0530
      6 C5         18.6120    0.0260   -1.9100 C.3       1 BDD        -0.0531
      7 C6         18.1700   -1.2520   -1.2230 C.3       1 BDD        -0.0531
      8 C7         18.8790   -1.4130    0.1190 C.3       1 BDD        -0.0531
      9 C8         18.1810   -2.3990    1.0450 C.3       1 BDD        -0.0531
     10 C9         18.8010   -2.3310    2.4370 C.3       1 BDD        -0.0530
     11 C10        18.0880   -1.3300    3.3240 C.3       1 BDD        -0.0523
     12 C11        18.2910   -1.5730    4.8090 C.3       1 BDD        -0.0434
     13 C12        17.6030   -0.5430    5.6990 C.3       1 BDD         0.0033
     14 BR         18.1010    0.9010    5.3080 Br        1 BDD        -0.0918
     15 H1         14.7688    0.1270   -7.4992 H         1 BDD         0.2094
     16 H2         15.1488   -0.6783   -5.3402 H         1 BDD         0.0557
     17 H3         14.3551    0.9332   -5.3468 H         1 BDD         0.0557
     18 H4         16.2830    2.0461   -4.7288 H         1 BDD         0.0287
     19 H5         17.3579    0.8419   -5.5169 H         1 BDD         0.0287
     20 H6         16.1893   -0.6417   -3.4921 H         1 BDD         0.0266
     21 H7         16.3599    0.9799   -2.7384 H         1 BDD         0.0266
     22 H8         18.7320    0.9094   -3.8633 H         1 BDD         0.0265
     23 H9         18.4507   -0.8648   -3.8569 H         1 BDD         0.0265
     24 H10        18.1687    0.8815   -1.3793 H         1 BDD         0.0265
     25 H11        19.7089    0.0911   -1.8588 H         1 BDD         0.0265
     26 H12        18.4134   -2.1108   -1.8658 H         1 BDD         0.0265
     27 H13        17.0834   -1.2154   -1.0557 H         1 BDD         0.0265
     28 H14        18.9168   -0.4322    0.6155 H         1 BDD         0.0265
     29 H15        19.9028   -1.7702   -0.0659 H         1 BDD         0.0265
     30 H16        18.2933   -3.4175    0.6450 H         1 BDD         0.0265
     31 H17        17.1124   -2.1459    1.1088 H         1 BDD         0.0265
     32 H18        19.8560   -2.0344    2.3425 H         1 BDD         0.0265
     33 H19        18.7400   -3.3257    2.9027 H         1 BDD         0.0265
     34 H20        17.0106   -1.3813    3.1084 H         1 BDD         0.0266
     35 H21        18.4627   -0.3243    3.0828 H         1 BDD         0.0266
     36 H22        19.3702   -1.5489    5.0204 H         1 BDD         0.0273
     37 H23        17.8911   -2.5675    5.0559 H         1 BDD         0.0273
     38 H24        17.8500   -0.7440    6.7519 H         1 BDD         0.0382
     39 H25        16.5137   -0.6061    5.5593 H         1 BDD         0.0382
@<TRIPOS>BOND
     1    1    2 1  
     2    2    3 1  
     3    3    4 1  
     4    4    5 1  
     5    5    6 1  
     6    6    7 1  
     7    7    8 1  
     8    8    9 1  
     9    9   10 1  
    10   10   11 1  
    11   11   12 1  
    12   12   13 1  
    13   13   14 1  
    14    1   15 1  
    15    2   16 1  
    16    2   17 1  
    17    3   18 1  
    18    3   19 1  
    19    4   20 1  
    20    4   21 1  
    21    5   22 1  
    22    5   23 1  
    23    6   24 1  
    24    6   25 1  
    25    7   26 1  
    26    7   27 1  
    27    8   28 1  
    28    8   29 1  
    29    9   30 1  
    30    9   31 1  
    31   10   32 1  
    32   10   33 1  
    33   11   34 1  
    34   11   35 1  
    35   12   36 1  
    36   12   37 1  
    37   13   38 1  
    38   13   39 1  
@<TRIPOS>SUBSTRUCTURE
     1 BDD         1

