### 
### Created by X-TOOL on Fri Sep 26 17:34:22 2014
### 

@<TRIPOS>MOLECULE
1n8v_ligand
   39    38     1     0     0
SMALL
GAST_HUCK


@<TRIPOS>ATOM
      1 O1         18.7430   23.9450   24.1990 O.3       1 BDD        -0.3950
      2 C1         18.8500   24.0610   25.6100 C.3       1 BDD         0.0442
      3 C2         19.0340   25.5260   25.9950 C.3       1 BDD        -0.0297
      4 C3         18.1300   25.9000   27.1620 C.3       1 BDD        -0.0510
      5 C4         18.7550   25.5480   28.5040 C.3       1 BDD        -0.0530
      6 C5         17.7040   25.5940   29.6090 C.3       1 BDD        -0.0531
      7 C6         16.9440   24.2710   29.7340 C.3       1 BDD        -0.0531
      8 C7         15.6900   24.3910   30.5990 C.3       1 BDD        -0.0531
      9 C8         14.6800   23.2810   30.3060 C.3       1 BDD        -0.0531
     10 C9         13.5600   23.2720   31.3410 C.3       1 BDD        -0.0530
     11 C10        12.4830   24.3030   31.0310 C.3       1 BDD        -0.0523
     12 C11        11.3100   24.2240   31.9910 C.3       1 BDD        -0.0434
     13 C12        10.1960   25.2010   31.6200 C.3       1 BDD         0.0033
     14 BR         10.5440   26.7090   32.1190 Br        1 BDD        -0.0918
     15 H1         18.6287   23.0313   23.9653 H         1 BDD         0.2094
     16 H2         19.7160   23.4799   25.9597 H         1 BDD         0.0557
     17 H3         17.9341   23.6724   26.0790 H         1 BDD         0.0557
     18 H4         18.7861   26.1593   25.1304 H         1 BDD         0.0287
     19 H5         20.0822   25.6934   26.2837 H         1 BDD         0.0287
     20 H6         17.1778   25.3587   27.0611 H         1 BDD         0.0266
     21 H7         17.9410   26.9832   27.1317 H         1 BDD         0.0266
     22 H8         19.5529   26.2698   28.7326 H         1 BDD         0.0265
     23 H9         19.1809   24.5352   28.4509 H         1 BDD         0.0265
     24 H10        16.9858   26.3959   29.3827 H         1 BDD         0.0265
     25 H11        18.2035   25.8081   30.5654 H         1 BDD         0.0265
     26 H12        17.6122   23.5225   30.1848 H         1 BDD         0.0265
     27 H13        16.6472   23.9392   28.7281 H         1 BDD         0.0265
     28 H14        15.2151   25.3635   30.4021 H         1 BDD         0.0265
     29 H15        15.9827   24.3335   31.6578 H         1 BDD         0.0265
     30 H16        15.1967   22.3101   30.3271 H         1 BDD         0.0265
     31 H17        14.2462   23.4439   29.3084 H         1 BDD         0.0265
     32 H18        13.9889   23.4939   32.3293 H         1 BDD         0.0265
     33 H19        13.1000   22.2729   31.3568 H         1 BDD         0.0265
     34 H20        12.1145   24.1319   30.0088 H         1 BDD         0.0266
     35 H21        12.9264   25.3075   31.0976 H         1 BDD         0.0266
     36 H22        11.6652   24.4598   33.0050 H         1 BDD         0.0273
     37 H23        10.9052   23.2014   31.9728 H         1 BDD         0.0273
     38 H24         9.2592   24.8736   32.0945 H         1 BDD         0.0382
     39 H25        10.0717   25.2048   30.5271 H         1 BDD         0.0382
@<TRIPOS>BOND
     1    1    2 1  
     2    2    3 1  
     3    3    4 1  
     4    4    5 1  
     5    5    6 1  
     6    6    7 1  
     7    7    8 1  
     8    8    9 1  
     9    9   10 1  
    10   10   11 1  
    11   11   12 1  
    12   12   13 1  
    13   13   14 1  
    14    1   15 1  
    15    2   16 1  
    16    2   17 1  
    17    3   18 1  
    18    3   19 1  
    19    4   20 1  
    20    4   21 1  
    21    5   22 1  
    22    5   23 1  
    23    6   24 1  
    24    6   25 1  
    25    7   26 1  
    26    7   27 1  
    27    8   28 1  
    28    8   29 1  
    29    9   30 1  
    30    9   31 1  
    31   10   32 1  
    32   10   33 1  
    33   11   34 1  
    34   11   35 1  
    35   12   36 1  
    36   12   37 1  
    37   13   38 1  
    38   13   39 1  
@<TRIPOS>SUBSTRUCTURE
     1 BDD         1

