### 
### Created by X-TOOL on Mon Sep 10 21:12:51 2018
### 

@<TRIPOS>MOLECULE
1n94_ligand
   84    86     1     0     0
SMALL
GAST_HUCK


@<TRIPOS>ATOM
      1 C1         47.6960   52.9350   -1.5700 C.3       1 TIN        -0.0528
      2 C2         47.9690   51.4130   -1.6920 C.3       1 TIN        -0.0500
      3 C3         49.4790   51.0980   -1.5290 C.3       1 TIN        -0.0362
      4 C4         50.3400   51.8830   -2.5440 C.3       1 TIN        -0.0500
      5 C5         50.0940   53.4070   -2.4240 C.3       1 TIN        -0.0528
      6 C6         48.5870   53.7630   -2.5460 C.3       1 TIN        -0.0530
      7 C17        49.7340   49.5860   -1.6560 C.3       1 TIN        -0.0097
      8 C19        50.4210   48.9800   -0.4140 C.3       1 TIN        -0.0302
      9 N2         51.0880   47.6990   -0.7830 N.4       1 TIN         0.2478
     10 C25        50.5450   46.5510    0.0000 C.3       1 TIN        -0.0304
     11 C26        49.4630   45.8440   -0.8420 C.3       1 TIN        -0.0127
     12 C29        48.8230   44.6440   -0.1410 C.3       1 TIN        -0.0511
     13 C32        48.0000   43.7760   -1.1100 C.3       1 TIN        -0.0651
     14 C38        52.6160   47.7450   -0.8390 C.3       1 TIN         0.0037
     15 C40        53.3460   48.3930    0.3360 C.ar      1 TIN         0.0052
     16 C43        53.8740   47.5700    1.3900 C.ar      1 TIN        -0.0504
     17 C44        54.5420   48.1890    2.4960 C.ar      1 TIN        -0.0491
     18 C45        54.6680   49.6220    2.5340 C.ar      1 TIN         0.0479
     19 C46        54.1390   50.4430    1.4620 C.ar      1 TIN        -0.0088
     20 C47        53.4810   49.8040    0.3750 C.ar      1 TIN        -0.0442
     21 C51        54.2180   51.9260    1.4090 C.ar      1 TIN        -0.0133
     22 C52        53.0910   52.7250    1.7800 C.ar      1 TIN        -0.0357
     23 C53        53.1940   54.1440    1.7270 C.ar      1 TIN        -0.0585
     24 C54        54.4050   54.7820    1.3070 C.ar      1 TIN        -0.0675
     25 C55        55.5320   53.9920    0.9310 C.ar      1 TIN        -0.0670
     26 C56        55.4270   52.5750    0.9870 C.ar      1 TIN        -0.0590
     27 C65        55.3630   50.1820    3.7340 C.2       1 TIN         0.2006
     28 C66        54.3100   51.5240    5.7660 C.3       1 TIN         0.0944
     29 O67        56.5560   50.4810    3.7010 O.2       1 TIN        -0.3888
     30 C68        52.9250   51.5820    6.3730 C.2       1 TIN         0.0601
     31 O69        52.0520   50.8970    5.8700 O.co2     1 TIN        -0.5666
     32 O70        52.7130   52.3130    7.3310 O.co2     1 TIN        -0.5666
     33 N1         54.6550   50.3620    4.9050 N.am      1 TIN        -0.2720
     34 C74        54.6460   52.8460    5.0700 C.3       1 TIN        -0.0090
     35 C76        54.7710   54.0290    6.0200 C.3       1 TIN        -0.0030
     36 S1         55.1420   55.5470    5.1620 S.3       1 TIN        -0.1639
     37 C82        55.0830   56.6070    6.6160 C.3       1 TIN        -0.0181
     38 C7         51.7570   52.2490    2.3720 C.3       1 TIN        -0.0293
     39 H1         47.9072   53.2531   -0.5384 H         1 TIN         0.0265
     40 H2         46.6384   53.1270   -1.8037 H         1 TIN         0.0265
     41 H3         47.6353   51.0670   -2.6814 H         1 TIN         0.0268
     42 H4         47.4058   50.8838   -0.9093 H         1 TIN         0.0268
     43 H5         49.7810   51.4106   -0.5185 H         1 TIN         0.0303
     44 H6         50.0817   51.5567   -3.5622 H         1 TIN         0.0268
     45 H7         51.4026   51.6745   -2.3506 H         1 TIN         0.0268
     46 H8         50.6464   53.9203   -3.2248 H         1 TIN         0.0265
     47 H9         50.4623   53.7506   -1.4461 H         1 TIN         0.0265
     48 H10        48.4579   54.8319   -2.3206 H         1 TIN         0.0265
     49 H11        48.2600   53.5636   -3.5772 H         1 TIN         0.0265
     50 H12        50.3771   49.4120   -2.5313 H         1 TIN         0.0319
     51 H13        48.7687   49.0796   -1.8037 H         1 TIN         0.0319
     52 H14        49.6672   48.7887    0.3639 H         1 TIN         0.0815
     53 H15        51.1723   49.6861   -0.0308 H         1 TIN         0.0815
     54 H16        50.8068   47.5256   -1.7353 H         1 TIN         0.2049
     55 H17        50.1024   46.9189    0.9374 H         1 TIN         0.0815
     56 H18        51.3555   45.8437    0.2300 H         1 TIN         0.0815
     57 H19        49.9246   45.4940   -1.7771 H         1 TIN         0.0317
     58 H20        48.6723   46.5728   -1.0737 H         1 TIN         0.0317
     59 H21        48.1598   45.0115    0.6559 H         1 TIN         0.0264
     60 H22        49.6186   44.0256    0.3001 H         1 TIN         0.0264
     61 H23        47.5615   42.9293   -0.5616 H         1 TIN         0.0230
     62 H24        48.6546   43.3963   -1.9083 H         1 TIN         0.0230
     63 H25        47.1958   44.3821   -1.5525 H         1 TIN         0.0230
     64 H26        52.8958   48.2995   -1.7468 H         1 TIN         0.0990
     65 H27        52.9741   46.7079   -0.9177 H         1 TIN         0.0990
     66 H28        53.7678   46.4920    1.3483 H         1 TIN         0.0564
     67 H29        54.9490   47.5830    3.2974 H         1 TIN         0.0650
     68 H30        53.0778   50.4030   -0.4335 H         1 TIN         0.0564
     69 H31        52.3416   54.7513    2.0093 H         1 TIN         0.0559
     70 H32        54.4655   55.8638    1.2747 H         1 TIN         0.0607
     71 H33        56.4528   54.4641    0.6081 H         1 TIN         0.0563
     72 H34        56.2808   51.9700    0.7041 H         1 TIN         0.0612
     73 H35        54.9915   51.4467    6.6260 H         1 TIN         0.0725
     74 H36        54.2847   49.5036    5.2601 H         1 TIN         0.1865
     75 H37        53.8497   53.0674    4.3441 H         1 TIN         0.0313
     76 H38        55.6022   52.7251    4.5399 H         1 TIN         0.0313
     77 H39        55.5777   53.8223    6.7386 H         1 TIN         0.0378
     78 H40        53.8208   54.1510    6.5605 H         1 TIN         0.0378
     79 H41        55.2916   57.6460    6.3210 H         1 TIN         0.0340
     80 H42        55.8378   56.2738    7.3435 H         1 TIN         0.0340
     81 H43        54.0836   56.5490    7.0718 H         1 TIN         0.0340
     82 H44        51.7345   51.1493    2.3878 H         1 TIN         0.0399
     83 H45        50.9273   52.6239    1.7547 H         1 TIN         0.0399
     84 H46        51.6534   52.6326    3.3977 H         1 TIN         0.0399
@<TRIPOS>BOND
     1    2    1 1  
     2    1    6 1  
     3    3    2 1  
     4    3    4 1  
     5    7    3 1  
     6    4    5 1  
     7    5    6 1  
     8    8    7 1  
     9    9    8 1  
    10    9   10 1  
    11   14    9 1  
    12   10   11 1  
    13   11   12 1  
    14   12   13 1  
    15   15   14 1  
    16   16   15 ar 
    17   20   15 ar 
    18   17   16 ar 
    19   18   17 ar 
    20   18   19 ar 
    21   27   18 1  
    22   19   20 ar 
    23   19   21 1  
    24   21   22 ar 
    25   21   26 ar 
    26   22   23 ar 
    27   22   38 1  
    28   23   24 ar 
    29   25   24 ar 
    30   26   25 ar 
    31   27   29 2  
    32   33   27 am 
    33   28   30 1  
    34   28   33 1  
    35   28   34 1  
    36   30   31 ar 
    37   30   32 ar 
    38   34   35 1  
    39   35   36 1  
    40   36   37 1  
    41    1   39 1  
    42    1   40 1  
    43    2   41 1  
    44    2   42 1  
    45    3   43 1  
    46    4   44 1  
    47    4   45 1  
    48    5   46 1  
    49    5   47 1  
    50    6   48 1  
    51    6   49 1  
    52    7   50 1  
    53    7   51 1  
    54    8   52 1  
    55    8   53 1  
    56    9   54 1  
    57   10   55 1  
    58   10   56 1  
    59   11   57 1  
    60   11   58 1  
    61   12   59 1  
    62   12   60 1  
    63   13   61 1  
    64   13   62 1  
    65   13   63 1  
    66   14   64 1  
    67   14   65 1  
    68   16   66 1  
    69   17   67 1  
    70   20   68 1  
    71   23   69 1  
    72   24   70 1  
    73   25   71 1  
    74   26   72 1  
    75   28   73 1  
    76   33   74 1  
    77   34   75 1  
    78   34   76 1  
    79   35   77 1  
    80   35   78 1  
    81   37   79 1  
    82   37   80 1  
    83   37   81 1  
    84   38   82 1  
    85   38   83 1  
    86   38   84 1  
@<TRIPOS>SUBSTRUCTURE
     1 TIN         1

