### 
### Created by X-TOOL on Mon Sep 10 21:12:51 2018
### 

@<TRIPOS>MOLECULE
1n95_ligand
   67    71     1     0     0
SMALL
GAST_HUCK


@<TRIPOS>ATOM
      1 C1         46.6010   46.4380   -3.4140 C.3       1 FTH         0.0470
      2 N2         47.9470   46.9410   -3.7430 N.pl3     1 FTH        -0.2509
      3 C3         48.6270   46.7630   -4.8790 C.2       1 FTH         0.0897
      4 N4         49.8220   47.3410   -4.8720 N.2       1 FTH        -0.3436
      5 C5         49.9430   47.9170   -3.6950 C.2       1 FTH        -0.0272
      6 C6         48.7700   47.6730   -2.9740 C.2       1 FTH         0.0618
      7 C7         48.3470   48.1030   -1.5510 C.3       1 FTH         0.0630
      8 C8         49.4760   48.5780   -0.6050 C.3       1 FTH         0.0797
      9 N9         49.9860   49.8450   -1.0900 N.4       1 FTH         0.2608
     10 C10        49.6010   51.0270   -0.3570 C.3       1 FTH         0.0066
     11 C11        49.6470   52.2480   -1.1790 C.ar      1 FTH         0.0108
     12 C12        50.7700   53.1130   -1.0950 C.ar      1 FTH        -0.0436
     13 C13        50.8120   54.2890   -1.9100 C.ar      1 FTH        -0.0332
     14 C14        49.7330   54.5720   -2.8010 C.ar      1 FTH         0.0883
     15 C15        49.7890   55.7460   -3.6060 C.1       1 FTH         0.0934
     16 N16        49.8030   56.7240   -4.1910 N.1       1 FTH        -0.3338
     17 C17        48.6040   53.7130   -2.8850 C.ar      1 FTH        -0.0332
     18 C18        48.5680   52.5460   -2.0700 C.ar      1 FTH        -0.0436
     19 C19        50.5820   47.4720   -0.4130 C.2       1 FTH         0.2315
     20 O20        50.4930   46.3350   -0.9000 O.2       1 FTH        -0.3903
     21 N21        51.5930   47.7630    0.4060 N.am      1 FTH        -0.2525
     22 C22        51.6850   47.0380    1.6000 C.3       1 FTH         0.0448
     23 C23        53.0210   46.9850    2.2380 C.3       1 FTH         0.0118
     24 C24        53.9880   48.0750    1.9450 C.2       1 FTH         0.0696
     25 C25        53.7510   48.9900    0.9650 C.2       1 FTH         0.0217
     26 C26        52.5430   48.8860    0.0740 C.3       1 FTH         0.0771
     27 C27        54.6850   50.0940    0.7650 C.ar      1 FTH         0.0042
     28 C28        55.9610   49.8600    0.1510 C.ar      1 FTH        -0.0469
     29 C29        56.8750   50.9330   -0.0450 C.ar      1 FTH        -0.0553
     30 C30        56.5650   52.2340    0.3760 C.ar      1 FTH        -0.0495
     31 C31        55.3120   52.4860    0.9940 C.ar      1 FTH        -0.0134
     32 C32        55.0010   53.8080    1.4070 C.ar      1 FTH        -0.0524
     33 C33        53.7430   54.0840    2.0110 C.ar      1 FTH        -0.0601
     34 C34        52.7880   53.0520    2.2100 C.ar      1 FTH        -0.0603
     35 C35        53.0760   51.7300    1.8140 C.ar      1 FTH        -0.0522
     36 C36        54.3570   51.4170    1.2100 C.ar      1 FTH        -0.0061
     37 C37        55.1330   48.1510    2.8500 C.1       1 FTH         0.0599
     38 N38        56.1400   48.1620    3.4450 N.1       1 FTH        -0.3674
     39 H1         46.2020   45.8722   -4.2688 H         1 FTH         0.0583
     40 H2         45.9363   47.2862   -3.1934 H         1 FTH         0.0583
     41 H3         46.6603   45.7801   -2.5344 H         1 FTH         0.0583
     42 H4         48.2395   46.1997   -5.7266 H         1 FTH         0.1150
     43 H5         50.8044   48.4836   -3.3444 H         1 FTH         0.0324
     44 H6         47.8535   47.2426   -1.0755 H         1 FTH         0.0525
     45 H7         47.6273   48.9287   -1.6522 H         1 FTH         0.0525
     46 H8         49.0324   48.7593    0.3851 H         1 FTH         0.1124
     47 H9         49.6673   49.9582   -2.0396 H         1 FTH         0.2054
     48 H10        50.9926   49.7931   -1.0773 H         1 FTH         0.2054
     49 H11        50.2856   51.1509    0.4950 H         1 FTH         0.1001
     50 H12        48.5744   50.8917    0.0142 H         1 FTH         0.1001
     51 H13        51.5873   52.8850   -0.4204 H         1 FTH         0.0585
     52 H14        51.6597   54.9620   -1.8509 H         1 FTH         0.0701
     53 H15        47.7851   53.9421   -3.5573 H         1 FTH         0.0701
     54 H16        47.7161   51.8779   -2.1251 H         1 FTH         0.0585
     55 H17        51.3741   46.0043    1.3885 H         1 FTH         0.0544
     56 H18        50.9879   47.4904    2.3207 H         1 FTH         0.0544
     57 H19        53.4921   46.0405    1.9283 H         1 FTH         0.0422
     58 H20        52.8615   46.9757    3.3263 H         1 FTH         0.0422
     59 H21        51.9874   49.8329    0.1427 H         1 FTH         0.0729
     60 H22        52.8936   48.7407   -0.9584 H         1 FTH         0.0729
     61 H23        56.2304   48.8589   -0.1657 H         1 FTH         0.0671
     62 H24        57.8265   50.7414   -0.5277 H         1 FTH         0.0630
     63 H25        57.2754   53.0398    0.2310 H         1 FTH         0.0664
     64 H26        55.7207   54.6056    1.2624 H         1 FTH         0.0632
     65 H27        53.5103   55.0955    2.3235 H         1 FTH         0.0620
     66 H28        51.8330   53.2818    2.6686 H         1 FTH         0.0627
     67 H29        52.3402   50.9476    1.9609 H         1 FTH         0.0624
@<TRIPOS>BOND
     1    1    2 1  
     2    2    3 1  
     3    2    6 1  
     4    3    4 2  
     5    4    5 1  
     6    5    6 2  
     7    6    7 1  
     8    7    8 1  
     9    8    9 1  
    10    8   19 1  
    11    9   10 1  
    12   10   11 1  
    13   11   12 ar 
    14   11   18 ar 
    15   12   13 ar 
    16   13   14 ar 
    17   14   15 1  
    18   14   17 ar 
    19   15   16 3  
    20   17   18 ar 
    21   19   20 2  
    22   19   21 am 
    23   21   22 1  
    24   21   26 1  
    25   22   23 1  
    26   23   24 1  
    27   24   25 2  
    28   24   37 1  
    29   25   26 1  
    30   25   27 1  
    31   27   28 ar 
    32   27   36 ar 
    33   28   29 ar 
    34   29   30 ar 
    35   30   31 ar 
    36   31   32 ar 
    37   31   36 ar 
    38   32   33 ar 
    39   33   34 ar 
    40   34   35 ar 
    41   35   36 ar 
    42   37   38 3  
    43    1   39 1  
    44    1   40 1  
    45    1   41 1  
    46    3   42 1  
    47    5   43 1  
    48    7   44 1  
    49    7   45 1  
    50    8   46 1  
    51    9   47 1  
    52    9   48 1  
    53   10   49 1  
    54   10   50 1  
    55   12   51 1  
    56   13   52 1  
    57   17   53 1  
    58   18   54 1  
    59   22   55 1  
    60   22   56 1  
    61   23   57 1  
    62   23   58 1  
    63   26   59 1  
    64   26   60 1  
    65   28   61 1  
    66   29   62 1  
    67   30   63 1  
    68   32   64 1  
    69   33   65 1  
    70   34   66 1  
    71   35   67 1  
@<TRIPOS>SUBSTRUCTURE
     1 FTH         1

