### 
### Created by X-TOOL on Mon Sep 10 21:12:51 2018
### 

@<TRIPOS>MOLECULE
1n9a_ligand
   58    62     1     0     0
SMALL
GAST_HUCK


@<TRIPOS>ATOM
      1 C1         48.5240   51.5150   -2.6380 C.3       1 FTI         0.0118
      2 C2         48.1480   50.2160   -1.9380 C.3       1 FTI         0.0448
      3 N1         48.8390   49.9400   -0.5970 N.am      1 FTI        -0.2556
      4 C3         49.6840   50.9510    0.0500 C.3       1 FTI         0.0770
      5 C4         50.2940   51.9450   -0.9140 C.2       1 FTI         0.0217
      6 C5         51.5490   52.5590   -0.4830 C.ar      1 FTI         0.0042
      7 C6         52.7710   51.8790   -0.5450 C.ar      1 FTI        -0.0061
      8 C7         54.0280   52.5210   -0.1070 C.ar      1 FTI        -0.0134
      9 C8         53.9920   53.8130    0.3690 C.ar      1 FTI        -0.0495
     10 C9         52.7310   54.5040    0.4570 C.ar      1 FTI        -0.0553
     11 C10        51.4900   53.9250    0.0420 C.ar      1 FTI        -0.0469
     12 C11        55.2740   51.8460   -0.1900 C.ar      1 FTI        -0.0524
     13 C12        48.6000   48.8260    0.1630 C.2       1 FTI         0.1941
     14 C13        52.8090   50.5130   -1.0300 C.ar      1 FTI        -0.0522
     15 C14        55.2790   50.5170   -0.6580 C.ar      1 FTI        -0.0601
     16 C15        54.0530   49.8620   -1.0830 C.ar      1 FTI        -0.0603
     17 C16        51.2410   46.1560    0.5010 C.3       1 FTI         0.0961
     18 N2         50.7040   46.0350   -3.1260 N.2       1 FTI        -0.3426
     19 C17        51.4210   45.8860   -2.0050 C.2       1 FTI         0.0926
     20 N3         50.7830   46.3160   -0.8880 N.pl3     1 FTI        -0.2333
     21 C18        49.4550   46.8320   -1.3490 C.2       1 FTI         0.0755
     22 C19        49.4320   46.6510   -2.6940 C.2       1 FTI        -0.0247
     23 C20        48.3120   47.4090   -0.5190 C.3       1 FTI         0.0922
     24 C21        51.5350   48.1280    1.9960 C.ar      1 FTI        -0.0459
     25 C22        52.0970   47.1960    1.1070 C.ar      1 FTI        -0.0031
     26 C23        53.4550   47.2100    0.8430 C.ar      1 FTI        -0.0459
     27 C24        54.3120   48.1580    1.4810 C.ar      1 FTI        -0.0333
     28 C25        53.7640   49.1200    2.3700 C.ar      1 FTI         0.0883
     29 C26        52.3540   49.1100    2.6470 C.ar      1 FTI        -0.0333
     30 C27        54.6130   50.1100    2.9700 C.1       1 FTI         0.0934
     31 N4         55.2660   50.9510    3.4180 N.1       1 FTI        -0.3338
     32 C28        49.7420   52.2080   -2.1700 C.2       1 FTI         0.0696
     33 O1         48.5630   48.8690    1.4030 O.2       1 FTI        -0.3938
     34 C29        50.3290   53.1240   -3.1160 C.1       1 FTI         0.0599
     35 N5         50.7780   53.9700   -3.7570 N.1       1 FTI        -0.3674
     36 H1         47.6809   52.2112   -2.5181 H         1 FTI         0.0422
     37 H2         48.6627   51.2873   -3.7052 H         1 FTI         0.0422
     38 H3         48.3927   49.3864   -2.6176 H         1 FTI         0.0544
     39 H4         47.0630   50.2346   -1.7579 H         1 FTI         0.0544
     40 H5         50.4994   50.4350    0.5781 H         1 FTI         0.0729
     41 H6         49.0693   51.5040    0.7755 H         1 FTI         0.0729
     42 H7         54.9070   54.3069    0.6755 H         1 FTI         0.0664
     43 H8         52.7218   55.5115    0.8570 H         1 FTI         0.0630
     44 H9         50.5550   54.4690    0.1125 H         1 FTI         0.0671
     45 H10        56.1954   52.3389    0.0984 H         1 FTI         0.0632
     46 H11        51.9024   50.0079   -1.3431 H         1 FTI         0.0624
     47 H12        56.2153   49.9725   -0.7019 H         1 FTI         0.0620
     48 H13        54.0997   48.8434   -1.4509 H         1 FTI         0.0627
     49 H14        51.8036   45.2118    0.5461 H         1 FTI         0.0806
     50 H15        50.3407   46.0767    1.1281 H         1 FTI         0.0806
     51 H16        52.4229   45.4594   -1.9914 H         1 FTI         0.1155
     52 H17        48.6059   46.9178   -3.3515 H         1 FTI         0.0332
     53 H18        47.4387   47.5220   -1.1782 H         1 FTI         0.0677
     54 H19        48.0778   46.6902    0.2800 H         1 FTI         0.0677
     55 H20        50.4692   48.1048    2.1925 H         1 FTI         0.0584
     56 H21        53.8730   46.4940    0.1446 H         1 FTI         0.0584
     57 H22        55.3784   48.1431    1.2869 H         1 FTI         0.0701
     58 H23        51.9188   49.8282    3.3324 H         1 FTI         0.0701
@<TRIPOS>BOND
     1    2    1 1  
     2    1   32 1  
     3    3    2 1  
     4    3    4 1  
     5   13    3 am 
     6    4    5 1  
     7    5    6 1  
     8    5   32 2  
     9    6    7 ar 
    10    6   11 ar 
    11    7    8 ar 
    12    7   14 ar 
    13    8    9 ar 
    14    8   12 ar 
    15   10    9 ar 
    16   11   10 ar 
    17   12   15 ar 
    18   23   13 1  
    19   13   33 2  
    20   14   16 ar 
    21   16   15 ar 
    22   20   17 1  
    23   17   25 1  
    24   18   19 2  
    25   22   18 1  
    26   20   19 1  
    27   21   20 1  
    28   21   22 2  
    29   21   23 1  
    30   25   24 ar 
    31   24   29 ar 
    32   25   26 ar 
    33   26   27 ar 
    34   27   28 ar 
    35   28   29 ar 
    36   28   30 1  
    37   30   31 3  
    38   32   34 1  
    39   34   35 3  
    40    1   36 1  
    41    1   37 1  
    42    2   38 1  
    43    2   39 1  
    44    4   40 1  
    45    4   41 1  
    46    9   42 1  
    47   10   43 1  
    48   11   44 1  
    49   12   45 1  
    50   14   46 1  
    51   15   47 1  
    52   16   48 1  
    53   17   49 1  
    54   17   50 1  
    55   19   51 1  
    56   22   52 1  
    57   23   53 1  
    58   23   54 1  
    59   24   55 1  
    60   26   56 1  
    61   27   57 1  
    62   29   58 1  
@<TRIPOS>SUBSTRUCTURE
     1 FTI         1

