### 
### Created by X-TOOL on Mon Sep 10 21:12:49 2018
### 

@<TRIPOS>MOLECULE
1n9m_ligand
   31    32     1     0     0
SMALL
GAST_HUCK


@<TRIPOS>ATOM
      1 C11        17.5910   19.2890   32.1550 C.2       1 BTN         0.0348
      2 O11        18.3220   20.2080   31.6920 O.co2     1 BTN        -0.5690
      3 O12        16.3490   19.2480   31.9060 O.co2     1 BTN        -0.5690
      4 C10        18.2070   18.2580   33.0180 C.3       1 BTN         0.0002
      5 C9         19.7000   18.0010   32.7400 C.3       1 BTN        -0.0414
      6 C8         19.8460   17.1860   31.4540 C.3       1 BTN        -0.0505
      7 C7         21.2610   16.5720   31.2820 C.3       1 BTN        -0.0389
      8 C2         21.3960   15.6170   30.0880 C.3       1 BTN         0.0302
      9 S1         20.7650   13.9110   30.3710 S.3       1 BTN        -0.1527
     10 C6         21.4720   13.4010   28.7790 C.3       1 BTN         0.0190
     11 C5         22.8320   14.0730   28.6830 C.3       1 BTN         0.0750
     12 N1         23.9080   13.3210   29.3080 N.am      1 BTN        -0.2671
     13 C3         24.4610   14.0040   30.3260 C.2       1 BTN         0.2580
     14 O3         25.3840   13.5830   31.0710 O.2       1 BTN        -0.4008
     15 N2         23.8270   15.1890   30.4850 N.am      1 BTN        -0.2668
     16 C4         22.7740   15.3920   29.4990 C.3       1 BTN         0.0775
     17 H1         17.6623   17.3142   32.8681 H         1 BTN         0.0430
     18 H2         18.1029   18.5792   34.0649 H         1 BTN         0.0430
     19 H3         20.1386   17.4423   33.5799 H         1 BTN         0.0283
     20 H4         20.2226   18.9622   32.6262 H         1 BTN         0.0283
     21 H5         19.6433   17.8447   30.5967 H         1 BTN         0.0267
     22 H6         19.1094   16.3693   31.4711 H         1 BTN         0.0267
     23 H7         21.5082   16.0151   32.1978 H         1 BTN         0.0277
     24 H8         21.9791   17.3944   31.1478 H         1 BTN         0.0277
     25 H9         20.7807   16.0708   29.2972 H         1 BTN         0.0435
     26 H10        20.8254   13.7296   27.9520 H         1 BTN         0.0399
     27 H11        21.5841   12.3073   28.7446 H         1 BTN         0.0399
     28 H12        23.0693   14.2657   27.6263 H         1 BTN         0.0584
     29 H13        24.2003   12.4099   29.0173 H         1 BTN         0.1849
     30 H14        24.0556   15.8508   31.1990 H         1 BTN         0.1849
     31 H15        23.0190   16.2535   28.8604 H         1 BTN         0.0587
@<TRIPOS>BOND
     1    1    2 ar 
     2    1    3 ar 
     3    1    4 1  
     4    4    5 1  
     5    5    6 1  
     6    6    7 1  
     7    7    8 1  
     8    8    9 1  
     9    8   16 1  
    10    9   10 1  
    11   10   11 1  
    12   11   12 1  
    13   11   16 1  
    14   12   13 am 
    15   13   14 2  
    16   13   15 am 
    17   15   16 1  
    18    4   17 1  
    19    4   18 1  
    20    5   19 1  
    21    5   20 1  
    22    6   21 1  
    23    6   22 1  
    24    7   23 1  
    25    7   24 1  
    26    8   25 1  
    27   10   26 1  
    28   10   27 1  
    29   11   28 1  
    30   12   29 1  
    31   15   30 1  
    32   16   31 1  
@<TRIPOS>SUBSTRUCTURE
     1 BTN         1

