### 
### Created by X-TOOL on Mon Sep 10 21:12:50 2018
### 

@<TRIPOS>MOLECULE
1nax_ligand
   38    39     1     0     0
SMALL
GAST_HUCK


@<TRIPOS>ATOM
      1 O3          8.2580   16.3210   33.8390 O.co2     1 IH5        -0.5667
      2 C15         8.9500   17.3480   33.2920 C.2       1 IH5         0.0447
      3 O4         10.0930   17.6900   33.6300 O.co2     1 IH5        -0.5667
      4 C13         8.2520   18.0970   32.1980 C.3       1 IH5         0.0288
      5 C01         6.8560   18.7450   32.3280 C.ar      1 IH5        -0.0393
      6 C11         5.9550   18.4020   31.2500 C.ar      1 IH5        -0.0521
      7 C09         4.6380   18.9230   31.2540 C.ar      1 IH5         0.0667
      8 C07         4.1690   19.8260   32.3280 C.ar      1 IH5         0.1351
      9 O2          2.8870   20.2670   32.2250 O.3       1 IH5        -0.2691
     10 C2          2.5960   21.5540   31.5360 C.ar      1 IH5         0.0974
     11 C12         3.3160   22.0000   30.3140 C.ar      1 IH5        -0.0440
     12 C10         3.0070   23.2200   29.6950 C.ar      1 IH5        -0.0472
     13 C8          1.9860   24.0590   30.2110 C.ar      1 IH5         0.0789
     14 O1          1.7370   25.2190   29.5600 O.3       1 IH5        -0.3436
     15 C6          1.2170   23.6990   31.4260 C.ar      1 IH5        -0.0186
     16 C4          1.5420   22.4120   32.0850 C.ar      1 IH5        -0.0351
     17 C14         0.1000   24.6810   31.9310 C.3       1 IH5        -0.0170
     18 C16         0.7080   25.4970   33.0900 C.3       1 IH5        -0.0545
     19 C18        -1.1790   23.9030   32.4340 C.3       1 IH5        -0.0545
     20 C05         5.0540   20.1650   33.3680 C.ar      1 IH5         0.0667
     21 C03         6.3950   19.6370   33.3930 C.ar      1 IH5        -0.0521
     22 CL5         4.5760   21.2190   34.6190 Cl        1 IH5        -0.0795
     23 CL6         3.5950   18.4660   29.9590 Cl        1 IH5        -0.0795
     24 H1          8.1710   17.3882   31.3607 H         1 IH5         0.0568
     25 H2          8.9323   18.9158   31.9209 H         1 IH5         0.0568
     26 H3          6.2844   17.7526   30.4469 H         1 IH5         0.0541
     27 H4          4.0931   21.3715   29.8943 H         1 IH5         0.0468
     28 H5          3.5552   23.5257   28.8112 H         1 IH5         0.0497
     29 H6          1.4773   25.0297   28.6660 H         1 IH5         0.2422
     30 H7          1.0005   22.1053   32.9726 H         1 IH5         0.0463
     31 H8         -0.1924   25.3555   31.1128 H         1 IH5         0.0432
     32 H9         -0.0435   26.2014   33.4762 H         1 IH5         0.0252
     33 H10         1.5820   26.0567   32.7254 H         1 IH5         0.0252
     34 H11         1.0190   24.8150   33.8950 H         1 IH5         0.0252
     35 H12        -1.6065   23.3239   31.6023 H         1 IH5         0.0252
     36 H13        -1.9253   24.6229   32.8012 H         1 IH5         0.0252
     37 H14        -0.8961   23.2203   33.2488 H         1 IH5         0.0252
     38 H15         7.0645   19.9015   34.2035 H         1 IH5         0.0541
@<TRIPOS>BOND
     1    1    2 ar 
     2    2    3 ar 
     3    2    4 1  
     4    4    5 1  
     5    5    6 ar 
     6    5   21 ar 
     7    6    7 ar 
     8    7    8 ar 
     9    7   23 1  
    10    8    9 1  
    11    8   20 ar 
    12    9   10 1  
    13   10   11 ar 
    14   10   16 ar 
    15   11   12 ar 
    16   12   13 ar 
    17   13   14 1  
    18   13   15 ar 
    19   15   16 ar 
    20   15   17 1  
    21   17   18 1  
    22   17   19 1  
    23   20   21 ar 
    24   20   22 1  
    25    4   24 1  
    26    4   25 1  
    27    6   26 1  
    28   11   27 1  
    29   12   28 1  
    30   14   29 1  
    31   16   30 1  
    32   17   31 1  
    33   18   32 1  
    34   18   33 1  
    35   18   34 1  
    36   19   35 1  
    37   19   36 1  
    38   19   37 1  
    39   21   38 1  
@<TRIPOS>SUBSTRUCTURE
     1 IH5         1

