### 
### Created by X-TOOL on Mon Sep 10 21:12:50 2018
### 

@<TRIPOS>MOLECULE
1nc1_ligand
   36    38     1     0     0
SMALL
GAST_HUCK


@<TRIPOS>ATOM
      1 CS         56.1220   68.5800   22.5810 C.3       1 MTH        -0.0180
      2 S5'        55.5060   70.2220   23.1270 S.3       1 MTH        -0.1615
      3 C5'        56.1640   71.2620   21.7830 C.3       1 MTH         0.0224
      4 C4'        57.6240   71.6620   21.9930 C.3       1 MTH         0.0995
      5 O4'        58.1860   72.1790   20.7460 O.3       1 MTH        -0.3387
      6 C2'        57.6370   74.0500   22.0740 C.3       1 MTH         0.1380
      7 O2'        58.4560   75.1950   22.4790 O.3       1 MTH        -0.3836
      8 C3'        57.8490   72.7630   23.0050 C.3       1 MTH         0.1132
      9 O3'        59.2470   72.6590   23.4810 O.3       1 MTH        -0.3864
     10 C1'        57.9320   73.6160   20.5860 C.3       1 MTH         0.1958
     11 N9         56.7560   73.7550   19.5220 N.pl3     1 MTH        -0.2236
     12 C8         56.8850   73.4570   18.1670 C.2       1 MTH         0.0302
     13 C7         55.7740   73.6300   17.4720 C.2       1 MTH        -0.0543
     14 C5         54.8540   74.0650   18.4100 C.ar      1 MTH         0.0433
     15 C6         53.4720   74.4260   18.3490 C.ar      1 MTH         0.1162
     16 N6         52.7670   74.3890   17.2120 N.pl3     1 MTH        -0.3157
     17 N1         52.8650   74.8210   19.5290 N.ar      1 MTH        -0.2733
     18 C2         53.5650   74.8590   20.6740 C.ar      1 MTH         0.0500
     19 N3         54.8660   74.5410   20.8430 N.ar      1 MTH        -0.2771
     20 C4         55.4440   74.1530   19.6710 C.ar      1 MTH         0.1399
     21 H1         55.8050   67.8114   23.3013 H         1 MTH         0.0341
     22 H2         57.2204   68.6002   22.5260 H         1 MTH         0.0341
     23 H3         55.7094   68.3450   21.5888 H         1 MTH         0.0341
     24 H4         55.5564   72.1767   21.7189 H         1 MTH         0.0402
     25 H5         56.0867   70.7035   20.8385 H         1 MTH         0.0402
     26 H6         58.1777   70.7665   22.3116 H         1 MTH         0.0632
     27 H7         56.5832   74.3570   22.1458 H         1 MTH         0.0676
     28 H8         59.3746   74.9568   22.4361 H         1 MTH         0.2101
     29 H9         57.1422   72.7317   23.8473 H         1 MTH         0.0647
     30 H10        59.4673   73.4337   23.9847 H         1 MTH         0.2100
     31 H11        58.8149   74.1538   20.2101 H         1 MTH         0.0991
     32 H12        57.8169   73.1127   17.7209 H         1 MTH         0.0924
     33 H13        55.6184   73.4676   16.4065 H         1 MTH         0.0311
     34 H14        51.7727   74.6578   17.2136 H         1 MTH         0.1826
     35 H15        53.2187   74.0917   16.3354 H         1 MTH         0.1826
     36 H16        53.0271   75.1798   21.5588 H         1 MTH         0.0975
@<TRIPOS>BOND
     1    2    1 1  
     2    3    2 1  
     3    4    3 1  
     4    4    5 1  
     5    8    4 1  
     6    5   10 1  
     7    6    7 1  
     8    8    6 1  
     9    6   10 1  
    10    8    9 1  
    11   10   11 1  
    12   11   12 1  
    13   11   20 1  
    14   12   13 2  
    15   13   14 1  
    16   14   15 ar 
    17   14   20 ar 
    18   15   16 1  
    19   15   17 ar 
    20   17   18 ar 
    21   18   19 ar 
    22   19   20 ar 
    23    1   21 1  
    24    1   22 1  
    25    1   23 1  
    26    3   24 1  
    27    3   25 1  
    28    4   26 1  
    29    6   27 1  
    30    7   28 1  
    31    8   29 1  
    32    9   30 1  
    33   10   31 1  
    34   12   32 1  
    35   13   33 1  
    36   16   34 1  
    37   16   35 1  
    38   18   36 1  
@<TRIPOS>SUBSTRUCTURE
     1 MTH         1

