### 
### Created by X-TOOL on Mon Sep 10 21:12:49 2018
### 

@<TRIPOS>MOLECULE
1nc6_ligand
   63    65     1     0     0
SMALL
GAST_HUCK


@<TRIPOS>ATOM
      1 N1         42.9260   24.9830   51.9510 N.am      1 ABB        -0.2598
      2 C54        42.1130   26.1700   51.9010 C.3       1 ABB         0.0605
      3 C53        42.6050   24.2470   50.7510 C.3       1 ABB         0.1158
      4 C52        41.6090   24.9950   49.8970 C.3       1 ABB         0.0062
      5 C51        41.2700   26.1940   50.6340 C.3       1 ABB         0.0779
      6 CP         43.8730   23.9470   49.9320 C.3       1 ABB         0.1044
      7 OP         44.9350   24.3180   50.3610 O.3       1 ABB        -0.3507
      8 N          43.8700   22.4760   49.5650 N.4       1 ABB         0.2569
      9 CA         44.9500   21.7580   48.7840 C.3       1 ABB         0.0250
     10 CB         44.9510   20.2810   49.3230 C.3       1 ABB        -0.0010
     11 CG         45.2090   20.3250   50.8320 C.3       1 ABB        -0.0144
     12 CD         45.2130   18.9730   51.4780 C.3       1 ABB         0.0627
     13 NE         45.4730   19.1640   52.9210 N.pl3     1 ABB        -0.2723
     14 CZ         45.6300   17.9970   53.8330 C.cat     1 ABB         0.2882
     15 NH1        46.2850   18.2900   55.1370 N.pl3     1 ABB        -0.2849
     16 NH2        45.4720   16.8200   53.0350 N.pl3     1 ABB        -0.2849
     17 O          45.7980   21.0240   46.6110 O.3       1 ABB        -0.3637
     18 N5         43.5470   24.0540   46.8260 N.2       1 ABB        -0.3057
     19 C5         44.6650   23.2600   46.8320 C.2       1 ABB         0.1322
     20 S5         46.0500   24.1250   46.2890 S.3       1 ABB         0.0109
     21 C61        43.7950   25.3430   46.3970 C.ar      1 ABB         0.0222
     22 C62        45.1580   25.5940   46.0400 C.ar      1 ABB         0.0528
     23 C63        45.5590   26.8770   45.5820 C.ar      1 ABB        -0.0503
     24 C64        44.5980   27.9330   45.4730 C.ar      1 ABB        -0.0722
     25 C65        43.2220   27.7050   45.8250 C.ar      1 ABB        -0.0730
     26 C66        42.8180   26.3890   46.2920 C.ar      1 ABB        -0.0588
     27 O1         39.8930   26.1590   50.9890 O.3       1 ABB        -0.3897
     28 C1         42.8600   24.1170   53.0760 C.2       1 ABB         0.1759
     29 C2         42.4450   24.6250   54.4730 C.3       1 ABB         0.0259
     30 O2         43.1830   22.9060   53.0060 O.2       1 ABB        -0.3972
     31 C          44.6940   21.7730   47.2670 C.3       1 ABB         0.1714
     32 H1         42.7657   27.0553   51.9168 H         1 ABB         0.0548
     33 H2         41.4481   26.1890   52.7771 H         1 ABB         0.0548
     34 H3         42.1522   23.2901   51.0498 H         1 ABB         0.0642
     35 H4         40.7110   24.3816   49.7317 H         1 ABB         0.0316
     36 H5         42.0578   25.2568   48.9275 H         1 ABB         0.0316
     37 H6         41.4857   27.0926   50.0375 H         1 ABB         0.0614
     38 H7         43.7480   24.5024   48.9908 H         1 ABB         0.1208
     39 H8         44.8836   25.2422   50.5747 H         1 ABB         0.2155
     40 H9         43.0228   22.3357   49.0371 H         1 ABB         0.2048
     41 H10        43.8048   21.9836   50.4421 H         1 ABB         0.2048
     42 H11        45.9231   22.2316   48.9808 H         1 ABB         0.0914
     43 H12        45.7442   19.7033   48.8259 H         1 ABB         0.0324
     44 H13        43.9763   19.8112   49.1251 H         1 ABB         0.0324
     45 H14        44.4220   20.9330   51.3021 H         1 ABB         0.0301
     46 H15        46.1881   20.7958   51.0041 H         1 ABB         0.0301
     47 H16        46.0026   18.3485   51.0347 H         1 ABB         0.0689
     48 H17        44.2369   18.4865   51.3346 H         1 ABB         0.0689
     49 H18        45.5466   20.1184   53.3012 H         1 ABB         0.2642
     50 H19        46.4295   17.5345   55.8220 H         1 ABB         0.2615
     51 H20        46.5938   19.2483   55.3544 H         1 ABB         0.2615
     52 H21        44.9624   16.8684   52.1412 H         1 ABB         0.2615
     53 H22        45.8679   15.9243   53.3543 H         1 ABB         0.2615
     54 H23        45.6614   21.0196   45.6709 H         1 ABB         0.2149
     55 H24        46.5939   27.0572   45.3146 H         1 ABB         0.0565
     56 H25        44.9094   28.9105   45.1230 H         1 ABB         0.0552
     57 H26        42.4951   28.5049   45.7430 H         1 ABB         0.0552
     58 H27        41.7848   26.1988   46.5594 H         1 ABB         0.0558
     59 H28        39.3650   26.1113   50.2007 H         1 ABB         0.2099
     60 H29        42.4633   23.7889   55.1875 H         1 ABB         0.0467
     61 H30        41.4288   25.0434   54.4241 H         1 ABB         0.0467
     62 H31        43.1471   25.4048   54.8031 H         1 ABB         0.0467
     63 H32        43.7315   21.2958   47.0306 H         1 ABB         0.0936
@<TRIPOS>BOND
     1    1    2 1  
     2    3    1 1  
     3    1   28 am 
     4    5    2 1  
     5    3    4 1  
     6    6    3 1  
     7    4    5 1  
     8    5   27 1  
     9    6    7 1  
    10    8    6 1  
    11    9    8 1  
    12    9   10 1  
    13   31    9 1  
    14   10   11 1  
    15   11   12 1  
    16   12   13 1  
    17   13   14 ar 
    18   14   15 ar 
    19   14   16 ar 
    20   31   17 1  
    21   19   18 2  
    22   18   21 1  
    23   19   20 1  
    24   19   31 1  
    25   20   22 1  
    26   21   22 ar 
    27   21   26 ar 
    28   22   23 ar 
    29   23   24 ar 
    30   24   25 ar 
    31   25   26 ar 
    32   28   29 1  
    33   28   30 2  
    34    2   32 1  
    35    2   33 1  
    36    3   34 1  
    37    4   35 1  
    38    4   36 1  
    39    5   37 1  
    40    6   38 1  
    41    7   39 1  
    42    8   40 1  
    43    8   41 1  
    44    9   42 1  
    45   10   43 1  
    46   10   44 1  
    47   11   45 1  
    48   11   46 1  
    49   12   47 1  
    50   12   48 1  
    51   13   49 1  
    52   15   50 1  
    53   15   51 1  
    54   16   52 1  
    55   16   53 1  
    56   17   54 1  
    57   23   55 1  
    58   24   56 1  
    59   25   57 1  
    60   26   58 1  
    61   27   59 1  
    62   29   60 1  
    63   29   61 1  
    64   29   62 1  
    65   31   63 1  
@<TRIPOS>SUBSTRUCTURE
     1 ABB         1

