### 
### Created by X-TOOL on Mon Sep 10 21:12:49 2018
### 

@<TRIPOS>MOLECULE
1nde_ligand
   63    66     1     0     0
SMALL
GAST_HUCK


@<TRIPOS>ATOM
      1 C1        110.7370    5.5320 -105.3590 C.ar      1 MON         0.1823
      2 N2        110.9210    4.5570 -104.4530 N.pl3     1 MON        -0.2635
      3 N3        109.6060    6.2620 -105.4990 N.ar      1 MON        -0.2274
      4 N4        111.6410    5.9560 -106.2990 N.ar      1 MON        -0.2351
      5 C5        112.1510    3.7920 -104.3130 C.3       1 MON         0.0757
      6 C6        109.9180    4.1440 -103.4700 C.3       1 MON         0.0757
      7 C7        109.3710    7.2530 -106.3860 C.ar      1 MON         0.1796
      8 C8        111.4330    6.9410 -107.2020 C.ar      1 MON         0.1457
      9 C9        112.1770    2.3680 -103.6560 C.3       1 MON        -0.0120
     10 C10       109.8560    2.6970 -102.9320 C.3       1 MON        -0.0120
     11 N11       110.3030    7.5170 -107.1710 N.ar      1 MON        -0.2352
     12 N12       108.3340    8.0500 -106.6270 N.pl3     1 MON        -0.2857
     13 S13       112.2390    7.7050 -108.4440 S.3       1 MON        -0.0545
     14 N14       111.1930    2.2550 -102.5700 N.4       1 MON         0.2299
     15 C15       107.0840    8.1290 -106.0060 C.3       1 MON         0.0408
     16 C16       113.6520    7.9070 -109.4800 C.3       1 MON         0.0168
     17 C17       106.3950    9.3140 -106.7320 C.3       1 MON        -0.0033
     18 C18       112.5460    8.6530 -110.2420 C.3       1 MON        -0.0312
     19 C19       105.0900    9.5030 -106.1080 C.ar      1 MON        -0.0517
     20 C20       112.5190    9.4020 -111.5480 C.3       1 MON        -0.0180
     21 C21       103.9240    9.4400 -106.8730 C.ar      1 MON        -0.0687
     22 C22       105.0330    9.7310 -104.7160 C.ar      1 MON        -0.0687
     23 C23       110.9910    9.8030 -111.5100 C.ar      1 MON        -0.0427
     24 C24       102.6810    9.6030 -106.2350 C.ar      1 MON        -0.0398
     25 C25       103.8050    9.8910 -104.0920 C.ar      1 MON        -0.0398
     26 C26       110.5360   11.1320 -111.7190 C.ar      1 MON        -0.0597
     27 C27       109.9960    8.7960 -111.2300 C.ar      1 MON        -0.0597
     28 C28       102.6240    9.8210 -104.8370 C.ar      1 MON         0.0805
     29 C29       109.1400   11.4420 -111.6570 C.ar      1 MON        -0.0546
     30 C30       108.6200    9.1160 -111.1700 C.ar      1 MON        -0.0546
     31 O31       101.4320    9.9610 -104.2060 O.3       1 MON        -0.3376
     32 C32       108.1900   10.4320 -111.3820 C.ar      1 MON         0.0330
     33 CL33      106.5190   10.8070 -111.3060 Cl        1 MON        -0.0771
     34 H1        112.8356    4.4165 -103.7202 H         1 MON         0.0585
     35 H2        112.5538    3.6690 -105.3292 H         1 MON         0.0585
     36 H3        108.9372    4.3472 -103.9247 H         1 MON         0.0585
     37 H4        110.0577    4.7940 -102.5937 H         1 MON         0.0585
     38 H5        113.1814    2.1812 -103.2484 H         1 MON         0.0835
     39 H6        111.9477    1.6158 -104.4251 H         1 MON         0.0835
     40 H7        109.4491    2.0341 -103.7098 H         1 MON         0.0835
     41 H8        109.2064    2.6635 -102.0449 H         1 MON         0.0835
     42 H9        108.4749    8.7188 -107.3976 H         1 MON         0.1898
     43 H10       111.5120    2.8141 -101.7943 H         1 MON         0.2015
     44 H11       111.1415    1.2884 -102.2888 H         1 MON         0.2015
     45 H12       107.1911    8.3351 -104.9308 H         1 MON         0.0549
     46 H13       106.5155    7.1978 -106.1460 H         1 MON         0.0549
     47 H14       114.0571    6.9998 -109.9521 H         1 MON         0.0413
     48 H15       114.4787    8.5137 -109.0820 H         1 MON         0.0413
     49 H16       106.2717    9.0812 -107.8000 H         1 MON         0.0425
     50 H17       107.0003   10.2260 -106.6230 H         1 MON         0.0425
     51 H18       112.1996    9.4019 -109.5146 H         1 MON         0.0297
     52 H19       111.7698    7.8852 -110.3756 H         1 MON         0.0297
     53 H20       112.7640    8.7595 -112.4065 H         1 MON         0.0427
     54 H21       113.1840   10.2782 -111.5442 H         1 MON         0.0427
     55 H22       103.9757    9.2681 -107.9420 H         1 MON         0.0530
     56 H23       105.9474    9.7809 -104.1360 H         1 MON         0.0530
     57 H24       101.7657    9.5617 -106.8142 H         1 MON         0.0525
     58 H25       103.7606   10.0708 -103.0239 H         1 MON         0.0525
     59 H26       111.2522   11.9186 -111.9273 H         1 MON         0.0557
     60 H27       110.3102    7.7722 -111.0621 H         1 MON         0.0557
     61 H28       108.8082   12.4606 -111.8224 H         1 MON         0.0606
     62 H29       107.8943    8.3389 -110.9589 H         1 MON         0.0606
     63 H30       101.3393    9.2786 -103.5516 H         1 MON         0.2458
@<TRIPOS>BOND
     1    1    2 1  
     2    1    3 ar 
     3    4    1 ar 
     4    2    5 1  
     5    2    6 1  
     6    7    3 ar 
     7    8    4 ar 
     8    5    9 1  
     9    6   10 1  
    10   11    7 ar 
    11    7   12 1  
    12    8   11 ar 
    13   13    8 1  
    14    9   14 1  
    15   10   14 1  
    16   12   15 1  
    17   16   13 1  
    18    5   34 1  
    19   15   17 1  
    20   16   18 1  
    21   17   19 1  
    22   18   20 1  
    23   19   21 ar 
    24   19   22 ar 
    25   20   23 1  
    26   21   24 ar 
    27   22   25 ar 
    28   23   26 ar 
    29   23   27 ar 
    30   24   28 ar 
    31   25   28 ar 
    32   26   29 ar 
    33   27   30 ar 
    34   28   31 1  
    35   29   32 ar 
    36   30   32 ar 
    37   32   33 1  
    38    5   35 1  
    39    6   36 1  
    40    6   37 1  
    41    9   38 1  
    42    9   39 1  
    43   10   40 1  
    44   10   41 1  
    45   12   42 1  
    46   14   43 1  
    47   14   44 1  
    48   15   45 1  
    49   15   46 1  
    50   16   47 1  
    51   16   48 1  
    52   17   49 1  
    53   17   50 1  
    54   18   51 1  
    55   18   52 1  
    56   20   53 1  
    57   20   54 1  
    58   21   55 1  
    59   22   56 1  
    60   24   57 1  
    61   25   58 1  
    62   26   59 1  
    63   27   60 1  
    64   29   61 1  
    65   30   62 1  
    66   31   63 1  
@<TRIPOS>SUBSTRUCTURE
     1 MON         1

