### 
### Created by X-TOOL on Mon Sep 10 21:12:50 2018
### 

@<TRIPOS>MOLECULE
1ndj_ligand
   31    32     1     0     0
SMALL
GAST_HUCK


@<TRIPOS>ATOM
      1 C11         4.8740  -16.4020   23.9080 C.2       1 BTN         0.0348
      2 O11         4.5210  -15.1980   23.8090 O.co2     1 BTN        -0.5690
      3 O12         4.3800  -17.3080   23.1850 O.co2     1 BTN        -0.5690
      4 C10         5.8760  -16.6900   24.9620 C.3       1 BTN         0.0002
      5 C9          6.7710  -15.4720   25.2500 C.3       1 BTN        -0.0414
      6 C8          7.6500  -15.1560   24.0450 C.3       1 BTN        -0.0505
      7 C7          8.7530  -14.1100   24.3050 C.3       1 BTN        -0.0389
      8 C2          9.3260  -13.3910   23.1020 C.3       1 BTN         0.0302
      9 S1         10.5710  -14.3270   22.1360 S.3       1 BTN        -0.1527
     10 C6         10.9080  -12.8280   21.1610 C.3       1 BTN         0.0190
     11 C5         10.9240  -11.6750   22.1420 C.3       1 BTN         0.0750
     12 N1         12.2060  -11.4600   22.7970 N.am      1 BTN        -0.2671
     13 C3         12.1270  -11.6340   24.1220 C.2       1 BTN         0.2580
     14 O3         13.0460  -11.4910   24.9600 O.2       1 BTN        -0.4008
     15 N2         10.8620  -11.9760   24.4610 N.am      1 BTN        -0.2668
     16 C4          9.9770  -12.0340   23.3110 C.3       1 BTN         0.0775
     17 H1          6.5093  -17.5266   24.6318 H         1 BTN         0.0430
     18 H2          5.3496  -16.9710   25.8861 H         1 BTN         0.0430
     19 H3          7.4113  -15.6907   26.1172 H         1 BTN         0.0283
     20 H4          6.1365  -14.6016   25.4729 H         1 BTN         0.0283
     21 H5          7.0033  -14.7781   23.2395 H         1 BTN         0.0267
     22 H6          8.1333  -16.0891   23.7200 H         1 BTN         0.0267
     23 H7          9.5843  -14.6247   24.8090 H         1 BTN         0.0277
     24 H8          8.3329  -13.3469   24.9767 H         1 BTN         0.0277
     25 H9          8.4600  -13.2266   22.4440 H         1 BTN         0.0435
     26 H10        10.1188  -12.6773   20.4097 H         1 BTN         0.0399
     27 H11        11.8823  -12.9126   20.6575 H         1 BTN         0.0399
     28 H12        10.6018  -10.7567   21.6293 H         1 BTN         0.0584
     29 H13        13.0460  -11.2118   22.3145 H         1 BTN         0.1849
     30 H14        10.5697  -12.1672   25.3980 H         1 BTN         0.1849
     31 H15         9.1816  -11.2806   23.4092 H         1 BTN         0.0587
@<TRIPOS>BOND
     1    1    2 ar 
     2    1    3 ar 
     3    1    4 1  
     4    4    5 1  
     5    5    6 1  
     6    6    7 1  
     7    7    8 1  
     8    8    9 1  
     9    8   16 1  
    10    9   10 1  
    11   10   11 1  
    12   11   12 1  
    13   11   16 1  
    14   12   13 am 
    15   13   14 2  
    16   13   15 am 
    17   15   16 1  
    18    4   17 1  
    19    4   18 1  
    20    5   19 1  
    21    5   20 1  
    22    6   21 1  
    23    6   22 1  
    24    7   23 1  
    25    7   24 1  
    26    8   25 1  
    27   10   26 1  
    28   10   27 1  
    29   11   28 1  
    30   12   29 1  
    31   15   30 1  
    32   16   31 1  
@<TRIPOS>SUBSTRUCTURE
     1 BTN         1

