### 
### Created by X-TOOL on Mon Sep 10 21:12:50 2018
### 

@<TRIPOS>MOLECULE
1ndy_ligand
   42    44     1     0     0
SMALL
GAST_HUCK


@<TRIPOS>ATOM
      1 C1         50.9530   53.9590   20.7880 C.2       1 FR3         0.0642
      2 N2         51.0310   54.9480   21.7970 N.pl3     1 FR3        -0.2368
      3 C3         50.8750   54.2580   22.9380 C.2       1 FR3         0.1035
      4 N4         50.6810   52.9280   22.7430 N.2       1 FR3        -0.3095
      5 C5         50.7320   52.7880   21.3580 C.2       1 FR3         0.0902
      6 C8         50.5960   51.4430   20.7830 C.2       1 FR3         0.1892
      7 O9         50.3550   51.3630   19.6040 O.2       1 FR3        -0.3981
      8 N10        50.5600   50.3070   21.5210 N.am      1 FR3        -0.3040
      9 C13        50.9440   56.4700   21.6690 C.3       1 FR3         0.0970
     10 C14        52.4470   57.1350   21.6080 C.3       1 FR3         0.0759
     11 O15        53.3600   56.5060   22.6140 O.3       1 FR3        -0.3918
     12 C18        50.2560   56.8790   20.3720 C.3       1 FR3        -0.0085
     13 C19        48.7150   56.5170   20.5210 C.3       1 FR3        -0.0139
     14 C22        47.9560   56.7980   19.2230 C.ar      1 FR3        -0.0323
     15 C25        47.5760   58.0960   18.8840 C.ar      1 FR3        -0.0607
     16 C26        46.9220   58.3730   17.6490 C.ar      1 FR3        -0.0707
     17 C27        46.7240   57.3030   16.7260 C.ar      1 FR3        -0.0631
     18 C28        47.0980   55.9950   17.0760 C.ar      1 FR3        -0.0243
     19 C29        47.7980   55.7420   18.2740 C.ar      1 FR3        -0.0122
     20 C2         46.9520   54.9460   16.1170 C.ar      1 FR3        -0.0569
     21 C4         48.1790   54.4260   18.6170 C.ar      1 FR3        -0.0548
     22 C6         47.3560   53.6240   16.4480 C.ar      1 FR3        -0.0629
     23 C7         48.0110   53.3960   17.7090 C.ar      1 FR3        -0.0625
     24 H1         51.0578   54.1343   19.7183 H         1 FR3         0.0990
     25 H2         50.9014   54.7198   23.9239 H         1 FR3         0.1238
     26 H3         50.4656   49.4199   21.0691 H         1 FR3         0.1799
     27 H4         50.6278   50.3558   22.5175 H         1 FR3         0.1799
     28 H5         50.3889   56.8702   22.5302 H         1 FR3         0.0691
     29 H6         52.3712   58.2123   21.8169 H         1 FR3         0.0589
     30 H7         52.8648   56.9851   20.6016 H         1 FR3         0.0589
     31 H8         53.0062   56.6360   23.4860 H         1 FR3         0.2095
     32 H9         50.6918   56.3291   19.5248 H         1 FR3         0.0321
     33 H10        50.3746   57.9601   20.2074 H         1 FR3         0.0321
     34 H11        48.2801   57.1225   21.3298 H         1 FR3         0.0440
     35 H12        48.6189   55.4498   20.7696 H         1 FR3         0.0440
     36 H13        47.7817   58.9082   19.5718 H         1 FR3         0.0530
     37 H14        46.5820   59.3755   17.4154 H         1 FR3         0.0595
     38 H15        46.2849   57.4995   15.7546 H         1 FR3         0.0542
     39 H16        46.5342   55.1578   15.1394 H         1 FR3         0.0609
     40 H17        48.6038   54.2227   19.5934 H         1 FR3         0.0628
     41 H18        47.1742   52.8032   15.7637 H         1 FR3         0.0616
     42 H19        48.3773   52.4047   17.9503 H         1 FR3         0.0601
@<TRIPOS>BOND
     1    1    2 1  
     2    1    5 2  
     3    2    3 1  
     4    2    9 1  
     5    3    4 2  
     6    4    5 1  
     7    5    6 1  
     8    6    7 2  
     9    6    8 am 
    10    9   10 1  
    11    9   12 1  
    12   10   11 1  
    13   12   13 1  
    14   13   14 1  
    15   14   15 ar 
    16   14   19 ar 
    17   15   16 ar 
    18   16   17 ar 
    19   17   18 ar 
    20   18   19 ar 
    21   18   20 ar 
    22   19   21 ar 
    23   20   22 ar 
    24   21   23 ar 
    25   22   23 ar 
    26    1   24 1  
    27    3   25 1  
    28    8   26 1  
    29    8   27 1  
    30    9   28 1  
    31   10   29 1  
    32   10   30 1  
    33   11   31 1  
    34   12   32 1  
    35   12   33 1  
    36   13   34 1  
    37   13   35 1  
    38   15   36 1  
    39   16   37 1  
    40   17   38 1  
    41   20   39 1  
    42   21   40 1  
    43   22   41 1  
    44   23   42 1  
@<TRIPOS>SUBSTRUCTURE
     1 FR3         1

