### 
### Created by X-TOOL on Mon Sep 10 21:12:50 2018
### 

@<TRIPOS>MOLECULE
1ndz_ligand
   66    70     1     0     0
SMALL
GAST_HUCK


@<TRIPOS>ATOM
      1 C1         51.2620   54.3940   21.0460 C.2       1 FR5         0.0642
      2 N2         51.2380   55.3230   22.0730 N.pl3     1 FR5        -0.2369
      3 C3         51.1550   54.5960   23.2290 C.2       1 FR5         0.1035
      4 N4         51.0260   53.3560   23.0160 N.2       1 FR5        -0.3095
      5 C5         51.0190   53.2330   21.6000 C.2       1 FR5         0.0902
      6 C8         50.8310   51.9830   20.8660 C.2       1 FR5         0.1892
      7 O9         50.5770   51.9510   19.6320 O.2       1 FR5        -0.3981
      8 N10        50.8470   50.9090   21.6410 N.am      1 FR5        -0.3040
      9 C13        51.1410   56.8020   21.8880 C.3       1 FR5         0.0975
     10 C14        52.5180   57.6040   21.7930 C.3       1 FR5         0.0758
     11 O15        53.6000   57.3210   22.6900 O.3       1 FR5        -0.3918
     12 C18        50.3710   57.1940   20.6290 C.3       1 FR5         0.0073
     13 C19        48.8920   56.6160   20.6120 C.3       1 FR5         0.0529
     14 N22        48.2320   56.7680   19.2010 N.pl3     1 FR5        -0.2726
     15 C27        47.7640   57.9340   18.6950 C.2       1 FR5         0.0169
     16 C28        47.2130   57.6920   17.5170 C.2       1 FR5        -0.0726
     17 C29        47.3370   56.2520   17.3280 C.ar      1 FR5        -0.0393
     18 C30        48.0670   55.7380   18.3780 C.ar      1 FR5         0.0518
     19 C31        47.1210   55.4740   16.2610 C.ar      1 FR5        -0.0827
     20 C32        47.4630   54.2100   16.3080 C.ar      1 FR5        -0.0536
     21 C33        48.1200   53.7120   17.3910 C.ar      1 FR5         0.0531
     22 C34        48.3740   54.4780   18.4590 C.ar      1 FR5        -0.0247
     23 N1         48.4400   52.4840   17.5570 N.am      1 FR5        -0.2391
     24 C2         48.2950   51.5180   16.7830 C.2       1 FR5         0.2050
     25 O1         47.6070   51.5150   15.7840 O.2       1 FR5        -0.3853
     26 C4         49.1440   50.2820   17.1240 C.3       1 FR5         0.0607
     27 C6         48.5860   48.9020   16.6980 C.3       1 FR5         0.0473
     28 C9         44.6010   47.6190   21.1320 C.ar      1 FR5        -0.0786
     29 C15        45.8280   48.2110   20.7930 C.ar      1 FR5        -0.0656
     30 C10        46.2660   48.3270   19.4890 C.ar      1 FR5         0.0209
     31 C16        45.6270   47.6310   18.4380 C.ar      1 FR5         0.0808
     32 C11        44.4090   47.0580   18.7170 C.ar      1 FR5        -0.0420
     33 C17        43.9350   46.9960   20.0780 C.ar      1 FR5        -0.0766
     34 N11        47.4050   48.8850   18.9480 N.2       1 FR5        -0.3178
     35 C12        47.4170   48.5800   17.6420 C.2       1 FR5         0.1250
     36 N13        46.3460   47.8930   17.2600 N.pl3     1 FR5        -0.2353
     37 C7         46.0040   47.4390   15.9250 C.3       1 FR5         0.0461
     38 H1         51.4459   54.5898   19.9906 H         1 FR5         0.0990
     39 H2         51.1956   55.0369   24.2239 H         1 FR5         0.1238
     40 H3         50.7271   50.0010   21.2396 H         1 FR5         0.1799
     41 H4         50.9790   51.0062   22.6275 H         1 FR5         0.1799
     42 H5         50.5934   57.1833   22.7625 H         1 FR5         0.0690
     43 H6         52.2706   58.6674   21.9269 H         1 FR5         0.0589
     44 H7         52.9045   57.4427   20.7759 H         1 FR5         0.0589
     45 H8         53.3165   57.4722   23.5840 H         1 FR5         0.2095
     46 H9         50.9102   56.8074   19.7517 H         1 FR5         0.0323
     47 H10        50.3208   58.2915   20.5743 H         1 FR5         0.0323
     48 H11        48.2865   57.1621   21.3503 H         1 FR5         0.0599
     49 H12        48.9221   55.5494   20.8793 H         1 FR5         0.0599
     50 H13        47.8303   58.9081   19.1774 H         1 FR5         0.0873
     51 H14        46.7638   58.4129   16.8356 H         1 FR5         0.0266
     52 H15        46.6675   55.8854   15.3665 H         1 FR5         0.0519
     53 H16        47.2209   53.5560   15.4781 H         1 FR5         0.0441
     54 H17        48.8185   54.0633   19.3565 H         1 FR5         0.0398
     55 H18        48.8683   52.2684   18.4346 H         1 FR5         0.2239
     56 H19        49.2770   50.2626   18.2157 H         1 FR5         0.0539
     57 H20        50.1225   50.4079   16.6375 H         1 FR5         0.0539
     58 H21        49.3679   48.1337   16.7892 H         1 FR5         0.0558
     59 H22        48.2313   48.9426   15.6576 H         1 FR5         0.0558
     60 H23        44.2011   47.6445   22.1392 H         1 FR5         0.0516
     61 H24        46.4577   48.5929   21.5884 H         1 FR5         0.0535
     62 H25        43.8044   46.6525   17.9138 H         1 FR5         0.0541
     63 H26        43.0263   46.4439   20.2890 H         1 FR5         0.0528
     64 H27        46.7564   47.8031   15.2099 H         1 FR5         0.0566
     65 H28        45.0143   47.8303   15.6469 H         1 FR5         0.0566
     66 H29        45.9821   46.3394   15.9060 H         1 FR5         0.0566
@<TRIPOS>BOND
     1    2    1 1  
     2    1    5 2  
     3    2    3 1  
     4    9    2 1  
     5    3    4 2  
     6    4    5 1  
     7    5    6 1  
     8    6    7 2  
     9    6    8 am 
    10    9   10 1  
    11   12    9 1  
    12   10   11 1  
    13   13   12 1  
    14   14   13 1  
    15   14   15 1  
    16   18   14 1  
    17   16   15 2  
    18   17   16 1  
    19   18   17 ar 
    20   19   17 ar 
    21   22   18 ar 
    22   20   19 ar 
    23   21   20 ar 
    24   21   22 ar 
    25   23   21 1  
    26   24   23 am 
    27   24   25 2  
    28   26   24 1  
    29   27   26 1  
    30   35   27 1  
    31   29   28 ar 
    32   28   33 ar 
    33   30   29 ar 
    34   30   31 ar 
    35   34   30 1  
    36   31   32 ar 
    37   32   33 ar 
    38   35   34 2  
    39   35   36 1  
    40   36   31 1  
    41   36   37 1  
    42    1   38 1  
    43    3   39 1  
    44    8   40 1  
    45    8   41 1  
    46    9   42 1  
    47   10   43 1  
    48   10   44 1  
    49   11   45 1  
    50   12   46 1  
    51   12   47 1  
    52   13   48 1  
    53   13   49 1  
    54   15   50 1  
    55   16   51 1  
    56   19   52 1  
    57   20   53 1  
    58   22   54 1  
    59   23   55 1  
    60   26   56 1  
    61   26   57 1  
    62   27   58 1  
    63   27   59 1  
    64   28   60 1  
    65   29   61 1  
    66   32   62 1  
    67   33   63 1  
    68   37   64 1  
    69   37   65 1  
    70   37   66 1  
@<TRIPOS>SUBSTRUCTURE
     1 FR5         1

