### 
### Created by X-TOOL on Mon Sep 10 21:12:49 2018
### 

@<TRIPOS>MOLECULE
1nf8_ligand
   24    24     1     0     0
SMALL
GAST_HUCK


@<TRIPOS>ATOM
      1 C1          6.0430   20.8580   75.2370 C.2       1 ISC         0.0148
      2 C2          5.8600   21.4630   73.8410 C.3       1 ISC         0.1311
      3 O3          4.6730   22.1250   73.7890 O.3       1 ISC        -0.3740
      4 C3          6.2820   20.7470   72.7800 C.3       1 ISC         0.1474
      5 C4          6.1200   19.2830   72.8920 C.2       1 ISC        -0.0423
      6 C5          6.0980   18.6590   74.1370 C.2       1 ISC        -0.0785
      7 C6          6.1280   19.3940   75.3370 C.2       1 ISC        -0.0711
      8 C           6.0480   21.6670   76.5190 C.2       1 ISC         0.0585
      9 O2          5.8480   22.8860   76.3170 O.co2     1 ISC        -0.5631
     10 O1          6.2470   21.2140   77.6550 O.co2     1 ISC        -0.5631
     11 C1'         7.7890   20.2940   70.1780 C.2       1 ISC         0.0982
     12 O1'         7.9580   19.2460   69.5050 O.co2     1 ISC        -0.5554
     13 O2'         6.9450   21.1680   69.8900 O.co2     1 ISC        -0.5554
     14 C2'         8.3640   20.4100   71.4990 C.2       1 ISC         0.1204
     15 O3'         7.6690   20.9510   72.5440 O.3       1 ISC        -0.2891
     16 C3'         9.7130   19.9490   71.6550 C.2       1 ISC        -0.0787
     17 H1          6.5893   22.2865   73.8353 H         1 ISC         0.0816
     18 H2          4.6693   22.8178   74.4390 H         1 ISC         0.2136
     19 H3          5.7104   21.0926   71.9060 H         1 ISC         0.0898
     20 H4          6.0164   18.6834   71.9888 H         1 ISC         0.0700
     21 H5          6.0564   17.5718   74.1833 H         1 ISC         0.0421
     22 H6          6.2110   18.8971   76.3025 H         1 ISC         0.0486
     23 H7         10.2005   20.0105   72.6269 H         1 ISC         0.0272
     24 H8         10.2499   19.5375   70.8016 H         1 ISC         0.0272
@<TRIPOS>BOND
     1    2    1 1  
     2    1    7 2  
     3    1    8 1  
     4    2    3 1  
     5    4    2 1  
     6    4    5 1  
     7   15    4 1  
     8    5    6 2  
     9    6    7 1  
    10    8    9 ar 
    11    8   10 ar 
    12   11   12 ar 
    13   11   13 ar 
    14   14   11 1  
    15   15   14 1  
    16   14   16 2  
    17    2   17 1  
    18    3   18 1  
    19    4   19 1  
    20    5   20 1  
    21    6   21 1  
    22    7   22 1  
    23   16   23 1  
    24   16   24 1  
@<TRIPOS>SUBSTRUCTURE
     1 ISC         1

