### 
### Created by X-TOOL on Mon Sep 10 21:12:50 2018
### 

@<TRIPOS>MOLECULE
1nfu_ligand
   50    53     1     0     0
SMALL
GAST_HUCK


@<TRIPOS>ATOM
      1 N29         7.7990    0.4050   16.6500 N.pl3     1 RRP        -0.2722
      2 C28         6.6810    1.0070   17.0690 C.cat     1 RRP         0.2340
      3 N30         5.6500    1.1520   16.2090 N.pl3     1 RRP        -0.2722
      4 C27         6.5450    1.5100   18.4550 C.ar      1 RRP         0.0192
      5 C26         5.6790    2.6020   18.7490 C.ar      1 RRP        -0.0532
      6 C24         5.5380    3.0890   20.0770 C.ar      1 RRP        -0.0208
      7 C22         6.2730    2.4720   21.1150 C.ar      1 RRP        -0.0584
      8 C23         7.1300    1.3950   20.8350 C.ar      1 RRP        -0.0685
      9 C25         7.2720    0.9110   19.5180 C.ar      1 RRP        -0.0635
     10 C21         4.6130    4.2550   20.3660 C.3       1 RRP         0.0675
     11 N2          5.2400    5.3030   21.2030 N.am      1 RRP        -0.2591
     12 C8          4.9050    5.4240   22.5450 C.2       1 RRP         0.1993
     13 O1          4.0950    4.6980   23.1190 O.2       1 RRP        -0.3949
     14 C4          5.6160    6.5420   23.3200 C.3       1 RRP         0.1192
     15 N1          5.9860    7.7240   22.4970 N.am      1 RRP        -0.2118
     16 C7          6.8820    7.2660   21.3990 C.3       1 RRP         0.0528
     17 C2          6.2230    6.1930   20.5160 C.3       1 RRP         0.0533
     18 S4          6.5220    9.0100   23.3700 S.o2      1 RRP         0.0852
     19 O8          6.7240   10.0460   22.4060 O.2       1 RRP        -0.1481
     20 O9          5.5370    9.2960   24.3990 O.2       1 RRP        -0.1481
     21 C1          8.0180    8.5900   24.0920 C.2       1 RRP         0.1665
     22 C3          8.0470    7.9730   25.3790 C.2       1 RRP        -0.0334
     23 C6          9.4290    7.7150   25.7380 C.ar      1 RRP        -0.0233
     24 C5         10.3100    8.1500   24.7190 C.ar      1 RRP         0.0401
     25 S2          9.5610    8.8390   23.3840 S.3       1 RRP        -0.0090
     26 C10        11.7310    7.9480   24.9430 C.ar      1 RRP        -0.0360
     27 C14        12.1760    7.3380   26.1300 C.ar      1 RRP         0.0315
     28 CL         13.8710    7.1120   26.3290 Cl        1 RRP        -0.0759
     29 C15        11.2610    6.9150   27.1380 C.ar      1 RRP        -0.0579
     30 C11         9.8670    7.1140   26.9230 C.ar      1 RRP        -0.0661
     31 H1          8.5934    0.2875   17.2950 H         1 RRP         0.3181
     32 H2          7.8658    0.0588   15.6822 H         1 RRP         0.3181
     33 H3          4.7827    1.6137   16.5180 H         1 RRP         0.3181
     34 H4          5.7309    0.8009   15.2441 H         1 RRP         0.3181
     35 H5          5.1185    3.0691   17.9473 H         1 RRP         0.0557
     36 H6          6.1747    2.8321   22.1327 H         1 RRP         0.0557
     37 H7          7.6883    0.9308   21.6399 H         1 RRP         0.0599
     38 H8          7.9378    0.0796   19.3165 H         1 RRP         0.0559
     39 H9          3.7239    3.8745   20.8901 H         1 RRP         0.0686
     40 H10         4.3099    4.7062   19.4097 H         1 RRP         0.0686
     41 H11         6.5359    6.1260   23.7567 H         1 RRP         0.0720
     42 H12         4.9479    6.8800   24.1258 H         1 RRP         0.0720
     43 H13         7.7975    6.8464   21.8415 H         1 RRP         0.0500
     44 H14         7.1415    8.1306   20.7704 H         1 RRP         0.0500
     45 H15         5.6992    6.7055   19.6957 H         1 RRP         0.0540
     46 H16         7.0211    5.5592   20.1021 H         1 RRP         0.0540
     47 H17         7.1770    7.7356   25.9895 H         1 RRP         0.0443
     48 H18        12.4484    8.2672   24.1956 H         1 RRP         0.0575
     49 H19        11.6190    6.4511   28.0500 H         1 RRP         0.0562
     50 H20         9.1497    6.8016   27.6732 H         1 RRP         0.0570
@<TRIPOS>BOND
     1    1    2 ar 
     2    2    3 ar 
     3    2    4 1  
     4    4    5 ar 
     5    4    9 ar 
     6    5    6 ar 
     7    6    7 ar 
     8    6   10 1  
     9    7    8 ar 
    10    8    9 ar 
    11   10   11 1  
    12   11   12 am 
    13   11   17 1  
    14   12   13 2  
    15   12   14 1  
    16   14   15 1  
    17   15   16 1  
    18   15   18 am 
    19   16   17 1  
    20   18   19 2  
    21   18   20 2  
    22   18   21 1  
    23   21   22 2  
    24   21   25 1  
    25   22   23 1  
    26   23   24 ar 
    27   23   30 ar 
    28   24   25 1  
    29   24   26 ar 
    30   26   27 ar 
    31   27   28 1  
    32   27   29 ar 
    33   29   30 ar 
    34    1   31 1  
    35    1   32 1  
    36    3   33 1  
    37    3   34 1  
    38    5   35 1  
    39    7   36 1  
    40    8   37 1  
    41    9   38 1  
    42   10   39 1  
    43   10   40 1  
    44   14   41 1  
    45   14   42 1  
    46   16   43 1  
    47   16   44 1  
    48   17   45 1  
    49   17   46 1  
    50   22   47 1  
    51   26   48 1  
    52   29   49 1  
    53   30   50 1  
@<TRIPOS>SUBSTRUCTURE
     1 RRP         1

