### 
### Created by X-TOOL on Mon Sep 10 21:12:50 2018
### 

@<TRIPOS>MOLECULE
1nfx_ligand
   54    58     1     0     0
SMALL
GAST_HUCK


@<TRIPOS>ATOM
      1 O15         3.0240    1.4970   19.6010 O.3       1 RDR        -0.3924
      2 C10         3.6290    1.2890   18.3300 C.3       1 RDR         0.0707
      3 C6          4.6490    2.4260   18.0790 C.3       1 RDR         0.0776
      4 N2          5.8630    2.3630   18.9590 N.pl3     1 RDR        -0.2468
      5 C5          6.9980    1.6170   18.5910 C.ar      1 RDR         0.0796
      6 C7          7.9620    1.7650   19.6380 C.ar      1 RDR        -0.0109
      7 C11         9.1910    1.1150   19.5130 C.ar      1 RDR        -0.0090
      8 N16         9.4950    0.3450   18.4150 N.ar      1 RDR        -0.3237
      9 C14         8.5770    0.2060   17.4160 C.ar      1 RDR        -0.0111
     10 C9          7.3110    0.8300   17.4710 C.ar      1 RDR        -0.0220
     11 C3          7.3740    2.6180   20.6430 C.2       1 RDR        -0.0560
     12 C1          6.0850    2.9620   20.1790 C.2       1 RDR         0.0724
     13 C4          5.0250    3.8540   20.8600 C.3       1 RDR         0.0939
     14 N8          5.4810    5.0590   21.6000 N.am      1 RDR        -0.2546
     15 C12         5.0590    5.2490   22.9140 C.2       1 RDR         0.1997
     16 O18         4.3260    4.4710   23.5090 O.2       1 RDR        -0.3949
     17 C17         5.5690    6.5220   23.6350 C.3       1 RDR         0.1192
     18 N20         6.0490    7.6170   22.7620 N.am      1 RDR        -0.2118
     19 C19         7.0310    7.0800   21.7900 C.3       1 RDR         0.0529
     20 C13         6.3750    6.0220   20.8810 C.3       1 RDR         0.0538
     21 S21         6.6240    9.0390   23.6600 S.o2      1 RDR         0.0852
     22 O23         5.6180    9.2810   24.6610 O.2       1 RDR        -0.1481
     23 O24         6.8390   10.0160   22.6250 O.2       1 RDR        -0.1481
     24 C22         8.1260    8.6830   24.4200 C.2       1 RDR         0.1665
     25 C25         8.1590    8.0810   25.6900 C.2       1 RDR        -0.0334
     26 C27         9.5230    7.8410   26.1410 C.ar      1 RDR        -0.0233
     27 C28        10.4700    8.2970   25.1410 C.ar      1 RDR         0.0401
     28 S26         9.6780    8.9630   23.7900 S.3       1 RDR        -0.0090
     29 C30        11.8340    8.1450   25.3740 C.ar      1 RDR        -0.0360
     30 C32        12.2780    7.5450   26.5740 C.ar      1 RDR         0.0315
     31 CL33       13.9650    7.3450   26.8310 Cl        1 RDR        -0.0759
     32 C31        11.3680    7.1010   27.5620 C.ar      1 RDR        -0.0579
     33 C29         9.9810    7.2570   27.3230 C.ar      1 RDR        -0.0661
     34 H1          3.6937    1.4869   20.2747 H         1 RDR         0.2095
     35 H2          2.8581    1.3025   17.5455 H         1 RDR         0.0584
     36 H3          4.1459    0.3181   18.3196 H         1 RDR         0.0584
     37 H4          4.1447    3.3878   18.2539 H         1 RDR         0.0625
     38 H5          4.9784    2.3699   17.0310 H         1 RDR         0.0625
     39 H6          9.9258    1.2201   20.3030 H         1 RDR         0.0724
     40 H7          8.8265   -0.4017   16.5537 H         1 RDR         0.0677
     41 H8          6.5963    0.7040   16.6658 H         1 RDR         0.0625
     42 H9          7.8347    2.9348   21.5775 H         1 RDR         0.0188
     43 H10         4.4792    3.2211   21.5753 H         1 RDR         0.0740
     44 H11         4.3361    4.1972   20.0741 H         1 RDR         0.0740
     45 H12         6.4009    6.2262   24.2911 H         1 RDR         0.0720
     46 H13         4.7431    6.9163   24.2452 H         1 RDR         0.0720
     47 H14         7.8656    6.6180   22.3377 H         1 RDR         0.0500
     48 H15         7.4116    7.9040   21.1686 H         1 RDR         0.0500
     49 H16         5.7768    6.5449   20.1203 H         1 RDR         0.0540
     50 H17         7.1739    5.4482   20.3886 H         1 RDR         0.0540
     51 H18         7.2717    7.8250   26.2671 H         1 RDR         0.0443
     52 H19        12.5529    8.4856   24.6377 H         1 RDR         0.0575
     53 H20        11.7246    6.6513   28.4816 H         1 RDR         0.0562
     54 H21         9.2675    6.9193   28.0659 H         1 RDR         0.0570
@<TRIPOS>BOND
     1    1    2 1  
     2    2    3 1  
     3    3    4 1  
     4    4    5 1  
     5    4   12 1  
     6    5    6 ar 
     7    5   10 ar 
     8    6    7 ar 
     9    6   11 1  
    10    7    8 ar 
    11    8    9 ar 
    12    9   10 ar 
    13   11   12 2  
    14   12   13 1  
    15   13   14 1  
    16   14   15 am 
    17   14   20 1  
    18   15   16 2  
    19   15   17 1  
    20   17   18 1  
    21   18   19 1  
    22   18   21 am 
    23   19   20 1  
    24   21   22 2  
    25   21   23 2  
    26   21   24 1  
    27   24   25 2  
    28   24   28 1  
    29   25   26 1  
    30   26   27 ar 
    31   26   33 ar 
    32   27   28 1  
    33   27   29 ar 
    34   29   30 ar 
    35   30   31 1  
    36   30   32 ar 
    37   32   33 ar 
    38    1   34 1  
    39    2   35 1  
    40    2   36 1  
    41    3   37 1  
    42    3   38 1  
    43    7   39 1  
    44    9   40 1  
    45   10   41 1  
    46   11   42 1  
    47   13   43 1  
    48   13   44 1  
    49   17   45 1  
    50   17   46 1  
    51   19   47 1  
    52   19   48 1  
    53   20   49 1  
    54   20   50 1  
    55   25   51 1  
    56   29   52 1  
    57   32   53 1  
    58   33   54 1  
@<TRIPOS>SUBSTRUCTURE
     1 RDR         1

