### 
### Created by X-TOOL on Sun Sep  9 21:50:04 2018
### 

@<TRIPOS>MOLECULE
1ngw_ligand
   84    88     1     0     0
SMALL
GAST_HUCK


@<TRIPOS>ATOM
      1 N1        114.0570   87.1620   59.2440 N.pl3     1 NON        -0.3016
      2 C11       114.5750   85.8730   59.1770 C.2       1 NON         0.0257
      3 C12       114.9390   85.5560   57.7920 C.2       1 NON        -0.0785
      4 C13       114.6190   86.6980   57.0170 C.2       1 NON        -0.0759
      5 C14       114.0760   87.6800   57.9600 C.2       1 NON         0.0260
      6 C15       113.6140   88.9960   57.6350 C.3       1 NON         0.0291
      7 C16       115.5420   84.2100   57.3110 C.3       1 NON        -0.0591
      8 C17       114.7830   86.9260   55.4550 C.3       1 NON        -0.0497
      9 C18       116.0470   86.2640   54.8600 C.3       1 NON        -0.0630
     10 N2        111.6460   89.1150   59.1450 N.pl3     1 NON        -0.3016
     11 C21       112.3420   89.5380   58.0140 C.2       1 NON         0.0257
     12 C22       111.4250   90.3010   57.1470 C.2       1 NON        -0.0785
     13 C23       110.1830   90.3240   57.7740 C.2       1 NON        -0.0759
     14 C24       110.3340   89.5780   59.0210 C.2       1 NON         0.0260
     15 C25       109.3100   89.3320   60.0000 C.3       1 NON         0.0291
     16 C26       111.7640   90.9460   55.8050 C.3       1 NON        -0.0591
     17 C27       108.8820   91.0090   57.2390 C.3       1 NON        -0.0497
     18 C28       108.7370   92.4010   57.8570 C.3       1 NON        -0.0630
     19 N3        110.7670   88.0310   61.4710 N.pl3     1 NON        -0.3016
     20 C31       109.5320   88.5820   61.1890 C.2       1 NON         0.0257
     21 C32       108.7540   88.6710   62.4360 C.2       1 NON        -0.0784
     22 C33       109.5600   88.1630   63.4630 C.2       1 NON        -0.0740
     23 C34       110.8240   87.7660   62.8180 C.2       1 NON         0.0261
     24 C35       112.0330   87.4330   63.4590 C.3       1 NON         0.0291
     25 C36       107.3050   89.2260   62.5910 C.3       1 NON        -0.0591
     26 C37       109.1800   88.0370   65.0080 C.3       1 NON        -0.0352
     27 C38       109.4120   89.3490   65.8540 C.3       1 NON         0.0023
     28 C39       109.4020   89.0870   67.3840 C.2       1 NON         0.0357
     29 O31       108.5930   88.1090   67.9230 O.co2     1 NON        -0.5689
     30 O32       110.2010   89.8370   68.2180 O.co2     1 NON        -0.5689
     31 N4        113.7150   86.5700   61.9020 N.pl3     1 NON        -0.3016
     32 C41       112.8280   86.3940   62.9470 C.2       1 NON         0.0261
     33 C42       112.8400   85.0020   63.4050 C.2       1 NON        -0.0740
     34 C43       113.7730   84.3460   62.5870 C.2       1 NON        -0.0784
     35 C44       114.3070   85.3440   61.6410 C.2       1 NON         0.0257
     36 C45       114.7130   85.0050   60.3170 C.3       1 NON         0.0291
     37 C46       114.1610   82.8350   62.6570 C.3       1 NON        -0.0591
     38 C47       111.9670   84.3580   64.5860 C.3       1 NON        -0.0352
     39 C48       112.3640   84.7580   66.0710 C.3       1 NON         0.0023
     40 C49       111.4630   84.0970   67.1680 C.2       1 NON         0.0357
     41 O41       110.6400   83.0320   66.8550 O.co2     1 NON        -0.5689
     42 O42       111.4770   84.5750   68.4650 O.co2     1 NON        -0.5689
     43 H1        113.7216   87.6421   60.0913 H         1 NON         0.2215
     44 H2        113.6418   89.0537   56.5369 H         1 NON         0.0524
     45 H3        114.3627   89.6823   58.0574 H         1 NON         0.0524
     46 H4        115.6658   83.5355   58.1711 H         1 NON         0.0284
     47 H5        116.5212   84.3928   56.8445 H         1 NON         0.0284
     48 H6        114.8665   83.7472   56.5765 H         1 NON         0.0284
     49 H7        114.8359   88.0083   55.2656 H         1 NON         0.0317
     50 H8        113.9007   86.5078   54.9484 H         1 NON         0.0317
     51 H9        116.0918   86.4646   53.7794 H         1 NON         0.0241
     52 H10       116.0067   85.1780   55.0300 H         1 NON         0.0241
     53 H11       116.9419   86.6785   55.3472 H         1 NON         0.0241
     54 H12       112.0280   88.5637   59.9267 H         1 NON         0.2215
     55 H13       108.4984   88.8169   59.4652 H         1 NON         0.0524
     56 H14       108.9620   90.3225   60.3284 H         1 NON         0.0524
     57 H15       112.8220   90.7619   55.5666 H         1 NON         0.0284
     58 H16       111.5845   92.0297   55.8632 H         1 NON         0.0284
     59 H17       111.1299   90.5110   55.0185 H         1 NON         0.0284
     60 H18       108.0092   90.3967   57.5097 H         1 NON         0.0317
     61 H19       108.9409   91.0999   56.1444 H         1 NON         0.0317
     62 H20       107.8210   92.8772   57.4772 H         1 NON         0.0241
     63 H21       109.6087   93.0150   57.5864 H         1 NON         0.0241
     64 H22       108.6770   92.3118   58.9517 H         1 NON         0.0241
     65 H23       111.5167   87.8498   60.7884 H         1 NON         0.2215
     66 H24       111.7809   87.1613   64.4947 H         1 NON         0.0524
     67 H25       112.6548   88.3404   63.4589 H         1 NON         0.0524
     68 H26       106.9304   89.5523   61.6096 H         1 NON         0.0284
     69 H27       107.3118   90.0806   63.2835 H         1 NON         0.0284
     70 H28       106.6506   88.4366   62.9892 H         1 NON         0.0284
     71 H29       109.7908   87.2342   65.4466 H         1 NON         0.0337
     72 H30       108.1157   87.7680   65.0781 H         1 NON         0.0337
     73 H31       108.6138   90.0671   65.6151 H         1 NON         0.0441
     74 H32       110.3863   89.7782   65.5772 H         1 NON         0.0441
     75 H33       113.9025   87.4532   61.4063 H         1 NON         0.2215
     76 H34       115.7865   84.7750   60.3861 H         1 NON         0.0524
     77 H35       114.1577   84.0904   60.0619 H         1 NON         0.0524
     78 H36       113.5957   82.3484   63.4655 H         1 NON         0.0284
     79 H37       115.2389   82.7420   62.8559 H         1 NON         0.0284
     80 H38       113.9217   82.3502   61.6990 H         1 NON         0.0284
     81 H39       112.0500   83.2643   64.5027 H         1 NON         0.0337
     82 H40       110.9209   84.6594   64.4288 H         1 NON         0.0337
     83 H41       112.2835   85.8507   66.1688 H         1 NON         0.0441
     84 H42       113.4053   84.4499   66.2462 H         1 NON         0.0441
@<TRIPOS>BOND
     1    1    2 1  
     2    1    5 1  
     3    2    3 2  
     4    2   36 1  
     5    3    4 1  
     6    3    7 1  
     7    4    5 2  
     8    4    8 1  
     9    5    6 1  
    10    6   11 1  
    11    8    9 1  
    12   11   10 1  
    13   10   14 1  
    14   11   12 2  
    15   12   13 1  
    16   12   16 1  
    17   13   14 2  
    18   13   17 1  
    19   14   15 1  
    20   15   20 1  
    21   17   18 1  
    22   20   19 1  
    23   19   23 1  
    24   20   21 2  
    25   21   22 1  
    26   21   25 1  
    27   22   23 2  
    28   22   26 1  
    29   23   24 1  
    30   24   32 1  
    31   26   27 1  
    32   27   28 1  
    33   28   29 ar 
    34   28   30 ar 
    35   32   31 1  
    36   31   35 1  
    37   32   33 2  
    38   33   34 1  
    39   33   38 1  
    40   34   35 2  
    41   34   37 1  
    42   35   36 1  
    43   38   39 1  
    44   39   40 1  
    45   40   41 ar 
    46   40   42 ar 
    47    1   43 1  
    48    6   44 1  
    49    6   45 1  
    50    7   46 1  
    51    7   47 1  
    52    7   48 1  
    53    8   49 1  
    54    8   50 1  
    55    9   51 1  
    56    9   52 1  
    57    9   53 1  
    58   10   54 1  
    59   15   55 1  
    60   15   56 1  
    61   16   57 1  
    62   16   58 1  
    63   16   59 1  
    64   17   60 1  
    65   17   61 1  
    66   18   62 1  
    67   18   63 1  
    68   18   64 1  
    69   19   65 1  
    70   24   66 1  
    71   24   67 1  
    72   25   68 1  
    73   25   69 1  
    74   25   70 1  
    75   26   71 1  
    76   26   72 1  
    77   27   73 1  
    78   27   74 1  
    79   31   75 1  
    80   36   76 1  
    81   36   77 1  
    82   37   78 1  
    83   37   79 1  
    84   37   80 1  
    85   38   81 1  
    86   38   82 1  
    87   39   83 1  
    88   39   84 1  
@<TRIPOS>SUBSTRUCTURE
     1 NON         1

