### 
### Created by X-TOOL on Mon Sep 10 21:12:51 2018
### 

@<TRIPOS>MOLECULE
1nh0_ligand
   94    96     1     0     0
SMALL
GAST_HUCK


@<TRIPOS>ATOM
      1 O1         13.0880    8.7040   80.5170 O.3       1 KI2        -0.2506
      2 C2         11.9080    9.2090   75.8160 C.ar      1 KI2        -0.0687
      3 C3         13.2100    8.7570   76.0400 C.ar      1 KI2        -0.0685
      4 C4         13.7400    8.9300   77.3240 C.ar      1 KI2        -0.0578
      5 C5         13.0420    9.5440   78.3220 C.ar      1 KI2        -0.0130
      6 C6         11.7390   10.0030   78.0820 C.ar      1 KI2        -0.0578
      7 C7         11.1510    9.8340   76.8030 C.ar      1 KI2        -0.0685
      8 C8         13.5990    8.6600   81.7810 C.2       1 KI2         0.3222
      9 O9         14.3730    9.5300   82.2220 O.2       1 KI2        -0.3774
     10 N10        12.9710    7.7050   82.5700 N.am      1 KI2        -0.2526
     11 C11        13.5830    7.3080   83.8310 C.3       1 KI2         0.0963
     12 C12        12.5410    6.8130   84.8010 C.3       1 KI2         0.0086
     13 C13        11.5350    7.9200   84.9660 C.ar      1 KI2        -0.0406
     14 C14        11.7060    8.9100   85.9240 C.ar      1 KI2        -0.0603
     15 C15        10.7790    9.9530   86.0970 C.ar      1 KI2        -0.0686
     16 C16         9.6590    9.9860   85.2690 C.ar      1 KI2        -0.0687
     17 C17         9.4880    9.0210   84.2840 C.ar      1 KI2        -0.0686
     18 C18        10.3810    7.9570   84.1700 C.ar      1 KI2        -0.0603
     19 C19        13.6560    9.7340   79.7070 C.3       1 KI2         0.1113
     20 C21        14.7190    6.2690   83.5860 C.3       1 KI2         0.1681
     21 O22        15.1380    6.3210   82.2440 O.3       1 KI2        -0.3689
     22 C          15.8900    6.4770   84.4930 C.2       1 KI2         0.2097
     23 O          15.9060    6.0990   85.6980 O.2       1 KI2        -0.3940
     24 N          16.8630    7.1910   83.9510 N.am      1 PHE        -0.2616
     25 CA         18.1340    7.3120   84.6200 C.3       1 PHE         0.1404
     26 C          17.9980    8.0900   85.9240 C.2       1 PHE         0.2060
     27 O          17.3360    9.1340   85.9790 O.2       1 PHE        -0.3942
     28 CB         19.1510    8.0480   83.6950 C.3       1 PHE         0.0214
     29 CG         20.4780    8.2600   84.3570 C.ar      1 PHE        -0.0386
     30 CD1        20.9330    9.5230   84.7390 C.ar      1 PHE        -0.0601
     31 CD2        21.3010    7.2030   84.6170 C.ar      1 PHE        -0.0601
     32 CE1        22.1360    9.6690   85.3390 C.ar      1 PHE        -0.0686
     33 CE2        22.5340    7.3400   85.2330 C.ar      1 PHE        -0.0686
     34 CZ         22.9720    8.5840   85.6070 C.ar      1 PHE        -0.0687
     35 N          18.6610    7.5990   86.9590 N.am      1 GLU        -0.2635
     36 CA         18.6930    8.3030   88.2350 C.3       1 GLU         0.1325
     37 C          20.0310    7.9400   88.9080 C.2       1 GLU         0.2040
     38 O          20.4840    6.7740   88.8940 O.2       1 GLU        -0.3944
     39 CB         17.4900    7.9450   89.0960 C.3       1 GLU        -0.0008
     40 CG         17.4860    8.5570   90.4650 C.3       1 GLU         0.0044
     41 CD         18.2670    7.7910   91.5080 C.2       1 GLU         0.0350
     42 OE1        18.6960    8.4330   92.5250 O.co2     1 GLU        -0.5690
     43 OE2        18.6130    6.6150   91.2740 O.co2     1 GLU        -0.5690
     44 N          20.5510    8.9150   89.6610 N.am      1 GLU        -0.2636
     45 CA         21.7270    8.7360   90.4970 C.3       1 GLU         0.1321
     46 C          21.7420    9.7790   91.6050 C.2       1 GLU         0.1993
     47 O          21.1700   10.8500   91.4330 O.2       1 GLU        -0.3947
     48 CB         23.0140    8.8580   89.6680 C.3       1 GLU        -0.0008
     49 CG         23.2020   10.2550   89.0970 C.3       1 GLU         0.0044
     50 CD         24.4190   10.4340   88.2130 C.2       1 GLU         0.0350
     51 OE1        24.4400   11.4610   87.4520 O.co2     1 GLU        -0.5690
     52 OE2        25.3210    9.5240   88.2000 O.co2     1 GLU        -0.5690
     53 N          22.4230    9.4880   92.6710 N.am      1 NH2        -0.2990
     54 H1         11.4694    9.0676   74.8348 H         1 KI2         0.0559
     55 H2         13.7878    8.2903   75.2504 H         1 KI2         0.0599
     56 H3         14.7388    8.5637   77.5321 H         1 KI2         0.0557
     57 H4         11.1808   10.4874   78.8750 H         1 KI2         0.0557
     58 H5         10.1441   10.1804   76.6002 H         1 KI2         0.0599
     59 H6         12.1080    7.2943   82.2757 H         1 KI2         0.1875
     60 H7         14.0456    8.2017   84.2751 H         1 KI2         0.0630
     61 H8         13.0070    6.5782   85.7693 H         1 KI2         0.0451
     62 H9         12.0505    5.9128   84.4022 H         1 KI2         0.0451
     63 H10        12.5833    8.8779   86.5598 H         1 KI2         0.0557
     64 H11        10.9319   10.7122   86.8554 H         1 KI2         0.0599
     65 H12         8.9182   10.7675   85.3937 H         1 KI2         0.0559
     66 H13         8.6522    9.0964   83.5978 H         1 KI2         0.0599
     67 H14        10.1833    7.1573   83.4654 H         1 KI2         0.0557
     68 H15        14.7499    9.6285   79.6610 H         1 KI2         0.0776
     69 H16        13.3998   10.7253   80.1090 H         1 KI2         0.0776
     70 H17        14.3102    5.2672   83.7844 H         1 KI2         0.0863
     71 H18        15.8297    5.6849   82.1045 H         1 KI2         0.2134
     72 H19        16.7161    7.6484   83.0740 H         1 PHE         0.1885
     73 H20        18.5130    6.3039   84.8440 H         1 PHE         0.0823
     74 H21        18.7332    9.0278   83.4202 H         1 PHE         0.0474
     75 H22        19.3019    7.4459   82.7869 H         1 PHE         0.0474
     76 H23        20.3163   10.3949   84.5530 H         1 PHE         0.0557
     77 H24        20.9748    6.2104   84.3281 H         1 PHE         0.0557
     78 H25        22.4624   10.6633   85.6217 H         1 PHE         0.0599
     79 H26        23.1499    6.4674   85.4185 H         1 PHE         0.0599
     80 H27        23.9316    8.7199   86.0926 H         1 PHE         0.0559
     81 H28        19.1480    6.7308   86.8640 H         1 GLU         0.1883
     82 H29        18.6688    9.3871   88.0504 H         1 GLU         0.0801
     83 H30        17.4661    6.8513   89.2111 H         1 GLU         0.0330
     84 H31        16.5829    8.2784   88.5706 H         1 GLU         0.0330
     85 H32        16.4420    8.6282   90.8042 H         1 GLU         0.0433
     86 H33        17.9166    9.5664   90.3891 H         1 GLU         0.0433
     87 H34        20.1090    9.8119   89.6485 H         1 GLU         0.1883
     88 H35        21.6892    7.7337   90.9486 H         1 GLU         0.0801
     89 H36        22.9689    8.1391   88.8366 H         1 GLU         0.0330
     90 H37        23.8736    8.6204   90.3120 H         1 GLU         0.0330
     91 H38        23.2871   10.9578   89.9389 H         1 GLU         0.0433
     92 H39        22.3104   10.5019   88.5020 H         1 GLU         0.0433
     93 H40        22.4663   10.1381   93.4296 H         1 NH2         0.1815
     94 H41        22.9044    8.6137   92.7336 H         1 NH2         0.1815
@<TRIPOS>BOND
     1    1    8 1  
     2   19    1 1  
     3    3    2 ar 
     4    2    7 ar 
     5    4    3 ar 
     6    5    4 ar 
     7    5    6 ar 
     8    5   19 1  
     9    6    7 ar 
    10    8    9 2  
    11    8   10 am 
    12   10   11 1  
    13   11   12 1  
    14   11   20 1  
    15   12   13 1  
    16   13   14 ar 
    17   13   18 ar 
    18   14   15 ar 
    19   15   16 ar 
    20   16   17 ar 
    21   17   18 ar 
    22   20   21 1  
    23   20   22 1  
    24   22   23 2  
    25   22   24 am 
    26   24   25 1  
    27   25   26 1  
    28   25   28 1  
    29   26   27 2  
    30   26   35 am 
    31   28   29 1  
    32   29   30 ar 
    33   29   31 ar 
    34   30   32 ar 
    35   31   33 ar 
    36   32   34 ar 
    37   33   34 ar 
    38   35   36 1  
    39   36   37 1  
    40   36   39 1  
    41   37   38 2  
    42   37   44 am 
    43   39   40 1  
    44   40   41 1  
    45   41   42 ar 
    46   41   43 ar 
    47   44   45 1  
    48   45   46 1  
    49   45   48 1  
    50   46   47 2  
    51   46   53 am 
    52   48   49 1  
    53   49   50 1  
    54   50   51 ar 
    55   50   52 ar 
    56    2   54 1  
    57    3   55 1  
    58    4   56 1  
    59    6   57 1  
    60    7   58 1  
    61   10   59 1  
    62   11   60 1  
    63   12   61 1  
    64   12   62 1  
    65   14   63 1  
    66   15   64 1  
    67   16   65 1  
    68   17   66 1  
    69   18   67 1  
    70   19   68 1  
    71   19   69 1  
    72   20   70 1  
    73   21   71 1  
    74   24   72 1  
    75   25   73 1  
    76   28   74 1  
    77   28   75 1  
    78   30   76 1  
    79   31   77 1  
    80   32   78 1  
    81   33   79 1  
    82   34   80 1  
    83   35   81 1  
    84   36   82 1  
    85   39   83 1  
    86   39   84 1  
    87   40   85 1  
    88   40   86 1  
    89   44   87 1  
    90   45   88 1  
    91   48   89 1  
    92   48   90 1  
    93   49   91 1  
    94   49   92 1  
    95   53   93 1  
    96   53   94 1  
@<TRIPOS>SUBSTRUCTURE
     1 KI2         1

