### 
### Created by X-TOOL on Mon Sep 10 21:12:49 2018
### 

@<TRIPOS>MOLECULE
1nhg_ligand
   24    25     1     0     0
SMALL
GAST_HUCK


@<TRIPOS>ATOM
      1 C1         49.2360   95.7350   33.8340 C.ar      1 TCL        -0.0268
      2 C2         49.9030   96.7370   34.6340 C.ar      1 TCL         0.0206
      3 C6         49.5870   94.3320   34.0470 C.ar      1 TCL         0.1219
      4 C5         50.6080   93.9410   35.0670 C.ar      1 TCL         0.1456
      5 C4         51.2540   94.9660   35.8440 C.ar      1 TCL        -0.0358
      6 C3         50.9030   96.3660   35.6290 C.ar      1 TCL        -0.0668
      7 C11        54.1920   90.4650   33.3180 C.ar      1 TCL         0.0295
      8 C10        53.4150   89.7560   34.4050 C.ar      1 TCL        -0.0419
      9 C9         52.3510   90.4890   35.0520 C.ar      1 TCL         0.0726
     10 C8         52.0580   91.9470   34.6130 C.ar      1 TCL         0.1281
     11 C12        53.8750   91.7870   32.9620 C.ar      1 TCL        -0.0558
     12 C13        52.8920   92.5320   33.5280 C.ar      1 TCL        -0.0276
     13 O7         50.9930   92.6050   35.3200 O.3       1 TCL        -0.2599
     14 CL14       49.5510   98.3340   34.4540 Cl        1 TCL        -0.0832
     15 CL15       55.4230   89.5830   32.6000 Cl        1 TCL        -0.0806
     16 CL16       51.4760   89.7450   36.2620 Cl        1 TCL        -0.0778
     17 O17        48.9430   93.3860   33.2740 O.3       1 TCL        -0.3359
     18 H          48.4905   96.0182   33.0910 H         1 TCL         0.0516
     19 H          52.0022   94.6976   36.5898 H         1 TCL         0.0521
     20 H          51.3927   97.1418   36.2175 H         1 TCL         0.0504
     21 H          53.6490   88.7302   34.6897 H         1 TCL         0.0602
     22 H          54.4641   92.2497   32.1702 H         1 TCL         0.0598
     23 H          52.7143   93.5529   33.1899 H         1 TCL         0.0551
     24 H          49.5914   92.8984   32.7608 H         1 TCL         0.2447
@<TRIPOS>BOND
     1    1    2 ar 
     2    3    1 ar 
     3    6    2 ar 
     4    2   14 1  
     5    4    3 ar 
     6    3   17 1  
     7    4    5 ar 
     8   13    4 1  
     9    5    6 ar 
    10    8    7 ar 
    11    7   11 ar 
    12    7   15 1  
    13    9    8 ar 
    14   10    9 ar 
    15    9   16 1  
    16   10   12 ar 
    17   10   13 1  
    18   11   12 ar 
    19    1   18 1  
    20    5   19 1  
    21    6   20 1  
    22    8   21 1  
    23   11   22 1  
    24   12   23 1  
    25   17   24 1  
@<TRIPOS>SUBSTRUCTURE
     1 TCL         1

