### 
### Created by X-TOOL on Mon Sep 10 21:12:50 2018
### 

@<TRIPOS>MOLECULE
1nhu_ligand
   50    52     1     0     0
SMALL
GAST_HUCK


@<TRIPOS>ATOM
      1 N1          7.3180   33.2600   77.8600 N.am      1 153        -0.2430
      2 C2          7.1460   32.8210   76.3930 C.3       1 153         0.1082
      3 C3          5.6810   32.9860   75.8330 C.2       1 153         0.0624
      4 O4          5.4030   32.5250   74.6950 O.co2     1 153        -0.5664
      5 O5          4.8390   33.5880   76.5270 O.co2     1 153        -0.5664
      6 C6          7.2500   34.6300   78.2460 C.2       1 153         0.2113
      7 O7          6.8810   34.9810   79.3550 O.2       1 153        -0.3843
      8 C8          7.6660   35.7540   77.3020 C.ar      1 153         0.0639
      9 C9          6.6330   36.4720   76.6380 C.ar      1 153        -0.0412
     10 C10         6.9640   37.5310   75.7610 C.ar      1 153        -0.0422
     11 C11         8.3290   37.8700   75.5480 C.ar      1 153         0.0454
     12 C12         9.3600   37.1560   76.2120 C.ar      1 153        -0.0283
     13 C13         9.0400   36.1000   77.0890 C.ar      1 153         0.0609
     14 CL14        8.7340   39.1510   74.4800 Cl        1 153        -0.0666
     15 CL15       10.3320   35.2670   77.8840 Cl        1 153        -0.0648
     16 C16         7.6790   31.3640   76.1200 C.3       1 153         0.0162
     17 C17         9.1880   31.1640   76.0270 C.ar      1 153        -0.0392
     18 C18         9.7150   29.8360   75.8460 C.ar      1 153        -0.0602
     19 C19        11.1140   29.6040   75.7620 C.ar      1 153        -0.0686
     20 C20        12.0130   30.7040   75.8610 C.ar      1 153        -0.0687
     21 C21        11.5100   32.0260   76.0400 C.ar      1 153        -0.0686
     22 C22        10.1100   32.2520   76.1210 C.ar      1 153        -0.0602
     23 C23         7.5490   32.1750   78.9240 C.3       1 153         0.0754
     24 C24         8.9060   32.2070   79.6980 C.ar      1 153         0.0084
     25 C25         9.3060   33.3470   80.4750 C.ar      1 153        -0.0297
     26 C26        10.5410   33.3880   81.1820 C.ar      1 153        -0.0377
     27 C27        11.4390   32.3020   81.1550 C.ar      1 153        -0.0377
     28 C28        11.0680   31.1560   80.4000 C.ar      1 153         0.0410
     29 C29         9.8160   31.1020   79.6760 C.ar      1 153        -0.0289
     30 C30        11.9980   29.9280   80.3290 C.3       1 153         0.3750
     31 F31        12.9640   30.1320   79.4200 F         1 153        -0.2204
     32 F32        11.3230   28.8130   79.9770 F         1 153        -0.2204
     33 F33        12.5800   29.6930   81.5150 F         1 153        -0.2204
     34 H1          7.7786   33.5001   75.8026 H         1 153         0.0753
     35 H2          5.5948   36.2081   76.8038 H         1 153         0.0669
     36 H3          6.1807   38.0821   75.2532 H         1 153         0.0635
     37 H4         10.3970   37.4236   76.0442 H         1 153         0.0640
     38 H5          7.2445   31.0291   75.1666 H         1 153         0.0467
     39 H6          7.3129   30.7227   76.9353 H         1 153         0.0467
     40 H7          9.0315   28.9979   75.7725 H         1 153         0.0557
     41 H8         11.4940   28.5982   75.6237 H         1 153         0.0599
     42 H9         13.0821   30.5358   75.8001 H         1 153         0.0559
     43 H10        12.1976   32.8607   76.1145 H         1 153         0.0599
     44 H11         9.7368   33.2608   76.2556 H         1 153         0.0557
     45 H12         7.4784   31.1991   78.4214 H         1 153         0.0692
     46 H13         6.7428   32.2640   79.6670 H         1 153         0.0692
     47 H14         8.6453   34.2049   80.5247 H         1 153         0.0803
     48 H15        10.7961   34.2733   81.7532 H         1 153         0.0683
     49 H16        12.3802   32.3393   81.6915 H         1 153         0.0802
     50 H17         9.5639   30.2129   79.1094 H         1 153         0.0780
@<TRIPOS>BOND
     1    1    2 1  
     2    1    6 am 
     3    1   23 1  
     4    2    3 1  
     5    2   16 1  
     6    3    4 ar 
     7    3    5 ar 
     8    6    7 2  
     9    6    8 1  
    10    8    9 ar 
    11    8   13 ar 
    12    9   10 ar 
    13   10   11 ar 
    14   11   12 ar 
    15   11   14 1  
    16   12   13 ar 
    17   13   15 1  
    18   16   17 1  
    19   17   18 ar 
    20   17   22 ar 
    21   18   19 ar 
    22   19   20 ar 
    23   20   21 ar 
    24   21   22 ar 
    25   23   24 1  
    26   24   25 ar 
    27   24   29 ar 
    28   25   26 ar 
    29   26   27 ar 
    30   27   28 ar 
    31   28   29 ar 
    32   28   30 1  
    33   30   31 1  
    34   30   32 1  
    35   30   33 1  
    36    2   34 1  
    37    9   35 1  
    38   10   36 1  
    39   12   37 1  
    40   16   38 1  
    41   16   39 1  
    42   18   40 1  
    43   19   41 1  
    44   20   42 1  
    45   21   43 1  
    46   22   44 1  
    47   23   45 1  
    48   23   46 1  
    49   25   47 1  
    50   26   48 1  
    51   27   49 1  
    52   29   50 1  
@<TRIPOS>SUBSTRUCTURE
     1 153         1

