### 
### Created by X-TOOL on Mon Sep 10 21:12:51 2018
### 

@<TRIPOS>MOLECULE
1nhv_ligand
   57    61     1     0     0
SMALL
GAST_HUCK


@<TRIPOS>ATOM
      1 N1          6.5680   34.6840   75.2740 N.am      1 154        -0.2401
      2 C2          6.5680   34.1080   73.8690 C.3       1 154         0.1087
      3 C3          5.1370   34.1580   73.3280 C.2       1 154         0.0625
      4 O4          4.9100   33.7840   72.1540 O.co2     1 154        -0.5664
      5 O5          4.2650   34.5920   74.1100 O.co2     1 154        -0.5664
      6 C6          6.5730   36.0950   75.4920 C.2       1 154         0.2118
      7 O7          6.1380   36.5960   76.5120 O.2       1 154        -0.3842
      8 C8          7.1520   37.0740   74.4740 C.ar      1 154         0.0640
      9 C9          6.2340   37.7810   73.6470 C.ar      1 154        -0.0412
     10 C10         6.7020   38.7110   72.6900 C.ar      1 154        -0.0422
     11 C11         8.1010   38.9410   72.5530 C.ar      1 154         0.0454
     12 C12         9.0240   38.2410   73.3690 C.ar      1 154        -0.0283
     13 C13         8.5540   37.3070   74.3280 C.ar      1 154         0.0609
     14 CL14        8.6820   40.0780   71.3990 Cl        1 154        -0.0666
     15 CL15        9.7000   36.4940   75.2910 Cl        1 154        -0.0648
     16 C16         7.1980   32.6590   73.7530 C.3       1 154         0.0163
     17 C17         8.7380   32.5110   73.7890 C.ar      1 154        -0.0392
     18 C18         9.3270   31.2430   74.1180 C.ar      1 154        -0.0602
     19 C19        10.7480   31.0690   74.1650 C.ar      1 154        -0.0686
     20 C20        11.6160   32.1580   73.8760 C.ar      1 154        -0.0687
     21 C21        11.0610   33.4230   73.5470 C.ar      1 154        -0.0686
     22 C22         9.6380   33.5990   73.4990 C.ar      1 154        -0.0602
     23 C23         6.4790   33.6730   76.4170 C.3       1 154         0.0844
     24 C24         7.5400   33.7610   77.5460 C.2       1 154         0.0420
     25 C25         8.1520   34.8940   78.0430 C.2       1 154        -0.0693
     26 C26         9.0830   34.6550   79.0670 C.2       1 154        -0.0744
     27 C27         9.1980   33.3380   79.3800 C.2       1 154         0.0599
     28 S28         8.1450   32.3680   78.3950 S.3       1 154        -0.0279
     29 C29        10.0820   32.8600   80.4440 C.2       1 154         0.1216
     30 C30         9.8830   31.7740   81.2790 C.2       1 154        -0.0456
     31 C31        11.0410   31.7380   82.1690 C.ar      1 154        -0.0146
     32 C32        11.4480   30.8490   83.2330 C.ar      1 154        -0.0731
     33 C33        12.6870   31.1150   83.8900 C.ar      1 154        -0.0786
     34 C34        13.5260   32.2280   83.4820 C.ar      1 154        -0.0752
     35 C35        13.1250   33.1090   82.4300 C.ar      1 154        -0.0331
     36 C36        11.8750   32.8260   81.7620 C.ar      1 154         0.1200
     37 O37        11.2780   33.5180   80.7310 O.3       1 154        -0.2569
     38 H1          7.1863   34.7696   73.2446 H         1 154         0.0753
     39 H2          5.1694   37.6054   73.7515 H         1 154         0.0669
     40 H3          5.9986   39.2469   72.0630 H         1 154         0.0635
     41 H4         10.0878   38.4189   73.2607 H         1 154         0.0640
     42 H5          6.8544   32.2324   72.7991 H         1 154         0.0467
     43 H6          6.7964   32.0641   74.5866 H         1 154         0.0467
     44 H7          8.6821   30.3993   74.3355 H         1 154         0.0557
     45 H8         11.1642   30.1017   74.4223 H         1 154         0.0599
     46 H9         12.6912   32.0236   73.9066 H         1 154         0.0559
     47 H10        11.7156   34.2596   73.3311 H         1 154         0.0599
     48 H11         9.2314   34.5698   73.2394 H         1 154         0.0557
     49 H12         6.5545   32.6692   75.9736 H         1 154         0.0733
     50 H13         5.4910   33.7936   76.8854 H         1 154         0.0733
     51 H14         7.9307   35.8932   77.6709 H         1 154         0.0322
     52 H15         9.6527   35.4424   79.5583 H         1 154         0.0437
     53 H16         9.0374   31.0878   81.2736 H         1 154         0.0310
     54 H17        10.8314   30.0060   83.5233 H         1 154         0.0530
     55 H18        13.0065   30.4766   84.7058 H         1 154         0.0523
     56 H19        14.4725   32.3936   83.9838 H         1 154         0.0530
     57 H20        13.7357   33.9577   82.1440 H         1 154         0.0552
@<TRIPOS>BOND
     1    1    2 1  
     2    1    6 am 
     3    1   23 1  
     4    2    3 1  
     5    2   16 1  
     6    3    4 ar 
     7    3    5 ar 
     8    6    7 2  
     9    6    8 1  
    10    8    9 ar 
    11    8   13 ar 
    12    9   10 ar 
    13   10   11 ar 
    14   11   12 ar 
    15   11   14 1  
    16   12   13 ar 
    17   13   15 1  
    18   16   17 1  
    19   17   18 ar 
    20   17   22 ar 
    21   18   19 ar 
    22   19   20 ar 
    23   20   21 ar 
    24   21   22 ar 
    25   23   24 1  
    26   24   25 2  
    27   24   28 1  
    28   25   26 1  
    29   26   27 2  
    30   27   28 1  
    31   27   29 1  
    32   29   30 2  
    33   29   37 1  
    34   30   31 1  
    35   31   32 ar 
    36   31   36 ar 
    37   32   33 ar 
    38   33   34 ar 
    39   34   35 ar 
    40   35   36 ar 
    41   36   37 1  
    42    2   38 1  
    43    9   39 1  
    44   10   40 1  
    45   12   41 1  
    46   16   42 1  
    47   16   43 1  
    48   18   44 1  
    49   19   45 1  
    50   20   46 1  
    51   21   47 1  
    52   22   48 1  
    53   23   49 1  
    54   23   50 1  
    55   25   51 1  
    56   26   52 1  
    57   30   53 1  
    58   32   54 1  
    59   33   55 1  
    60   34   56 1  
    61   35   57 1  
@<TRIPOS>SUBSTRUCTURE
     1 154         1

