### 
### Created by X-TOOL on Mon Sep 10 21:12:50 2018
### 

@<TRIPOS>MOLECULE
1nhw_ligand
   25    26     1     0     0
SMALL
GAST_HUCK


@<TRIPOS>ATOM
      1 C12        54.5330   92.0550   33.1910 C.ar      1 TCC        -0.0585
      2 C11        54.7280   90.6930   33.5940 C.ar      1 TCC         0.0275
      3 CL2        56.0600   89.7790   32.9200 Cl        1 TCC        -0.0823
      4 C10        53.8250   90.0800   34.5610 C.ar      1 TCC        -0.0447
      5 C9         52.7290   90.8460   35.1150 C.ar      1 TCC         0.0611
      6 CL1        51.6670   90.0500   36.2880 Cl        1 TCC        -0.0804
      7 C8         52.5160   92.2390   34.7170 C.ar      1 TCC         0.0704
      8 N1         51.3610   92.9420   35.3550 N.pl3     1 TCC        -0.2775
      9 C4         51.0110   94.3500   35.0750 C.ar      1 TCC         0.0887
     10 C5         51.6630   95.4480   35.7830 C.ar      1 TCC        -0.0478
     11 C6         51.3060   96.8270   35.4960 C.ar      1 TCC        -0.0834
     12 C1         50.2960   97.1250   34.5060 C.ar      1 TCC        -0.0830
     13 C2         49.6440   96.0450   33.8010 C.ar      1 TCC        -0.0431
     14 C3         50.0000   94.6590   34.0830 C.ar      1 TCC         0.1103
     15 O1         49.3470   93.6610   33.3810 O.3       1 TCC        -0.3376
     16 C7         53.4450   92.8320   33.7360 C.ar      1 TCC        -0.0391
     17 H          55.2114   92.5074   32.4676 H         1 TCC         0.0593
     18 H          53.9754   89.0446   34.8667 H         1 TCC         0.0597
     19 H          50.7850   92.4229   36.0177 H         1 TCC         0.2057
     20 H          52.4238   95.2315   36.5330 H         1 TCC         0.0495
     21 H          51.8012   97.6388   36.0287 H         1 TCC         0.0492
     22 H          50.0273   98.1595   34.2921 H         1 TCC         0.0486
     23 H          48.8818   96.2675   33.0542 H         1 TCC         0.0505
     24 H          49.5096   93.7732   32.4415 H         1 TCC         0.2442
     25 H          53.3086   93.8662   33.4198 H         1 TCC         0.0527
@<TRIPOS>BOND
     1    1    2 ar 
     2    1   16 ar 
     3    2    3 1  
     4    2    4 ar 
     5    4    5 ar 
     6    5    6 1  
     7    5    7 ar 
     8    7    8 1  
     9    7   16 ar 
    10    8    9 1  
    11    9   10 ar 
    12    9   14 ar 
    13   10   11 ar 
    14   11   12 ar 
    15   12   13 ar 
    16   13   14 ar 
    17   14   15 1  
    18    1   17 1  
    19    4   18 1  
    20    8   19 1  
    21   10   20 1  
    22   11   21 1  
    23   12   22 1  
    24   13   23 1  
    25   15   24 1  
    26   16   25 1  
@<TRIPOS>SUBSTRUCTURE
     1 TCC         1

