### 
### Created by X-TOOL on Tue Oct 16 15:17:22 2018
### 

@<TRIPOS>MOLECULE
1nhx_ligand
   60    63     1     0     0
SMALL
GAST_HUCK


@<TRIPOS>ATOM
      1 O33        35.8010   51.4460   34.0580 O.2       1 FTB        -0.3860
      2 C32        36.0990   51.3690   35.2450 C.2       1 FTB         0.1988
      3 C34        35.5200   52.3910   36.1800 C.3       1 FTB         0.0313
      4 N31        36.9390   50.3870   35.7390 N.am      1 FTB        -0.2378
      5 C28        37.6020   49.3190   35.0080 C.ar      1 FTB         0.0599
      6 C29        38.5010   48.4660   35.6750 C.ar      1 FTB        -0.0469
      7 C30        39.1520   47.4290   34.9770 C.ar      1 FTB        -0.0709
      8 C27        37.3760   49.1210   33.6300 C.ar      1 FTB        -0.0469
      9 C26        38.0280   48.0880   32.9320 C.ar      1 FTB        -0.0709
     10 C25        38.9090   47.2310   33.6060 C.ar      1 FTB        -0.0416
     11 C24        39.6080   46.1290   32.8350 C.3       1 FTB         0.0446
     12 C1         38.8310   44.8400   32.8870 C.2       1 FTB         0.1127
     13 N2         39.1550   43.9000   33.8030 N.pl3     1 FTB        -0.2279
     14 C3         38.2640   42.9240   33.5450 C.2       1 FTB         0.1961
     15 N6         38.2170   41.7490   34.2440 N.am      1 FTB        -0.1723
     16 C12        39.1590   41.4440   35.3460 C.3       1 FTB         0.0619
     17 C13        40.2020   40.3990   34.8780 C.3       1 FTB        -0.0269
     18 C14        41.1370   39.9680   36.0180 C.3       1 FTB        -0.0536
     19 C15        41.9520   38.7370   35.6300 C.3       1 FTB        -0.0652
     20 C4         37.4460   43.2730   32.5150 C.2       1 FTB         0.0958
     21 N5         37.7890   44.5060   32.0810 N.2       1 FTB        -0.3409
     22 C9         36.4470   42.4000   32.0870 C.2       1 FTB         0.1998
     23 O10        35.6740   42.6810   31.1660 O.2       1 FTB        -0.4092
     24 N8         36.3800   41.1860   32.7780 N.am      1 FTB        -0.1625
     25 C7         37.2450   40.8590   33.8370 C.2       1 FTB         0.3271
     26 O11        37.1310   39.7930   34.4150 O.2       1 FTB        -0.3848
     27 C16        35.6750   40.0310   32.1730 C.3       1 FTB         0.0930
     28 C17        34.2810   40.0170   32.7520 C.ar      1 FTB         0.0176
     29 C18        34.0250   40.3500   34.1000 C.ar      1 FTB        -0.0597
     30 C19        32.7130   40.3340   34.6040 C.ar      1 FTB        -0.0725
     31 C20        31.6510   39.9680   33.7640 C.ar      1 FTB        -0.0706
     32 C21        31.8990   39.6340   32.4210 C.ar      1 FTB        -0.0348
     33 C22        33.2120   39.6650   31.9230 C.ar      1 FTB         0.1354
     34 F          33.4370   39.3320   30.6350 F         1 FTB        -0.1890
     35 H1         35.8744   52.1947   37.2027 H         1 FTB         0.0471
     36 H2         34.4220   52.3308   36.1546 H         1 FTB         0.0471
     37 H3         35.8395   53.3962   35.8679 H         1 FTB         0.0471
     38 H4         37.1122   50.4152   36.7235 H         1 FTB         0.2235
     39 H5         38.6940   48.6075   36.7323 H         1 FTB         0.0488
     40 H6         39.8446   46.7797   35.5003 H         1 FTB         0.0524
     41 H7         36.6906   49.7736   33.1015 H         1 FTB         0.0488
     42 H8         37.8488   47.9546   31.8713 H         1 FTB         0.0524
     43 H9         40.6040   45.9637   33.2717 H         1 FTB         0.0611
     44 H10        39.7148   46.4397   31.7852 H         1 FTB         0.0611
     45 H11        39.8962   43.9243   34.5178 H         1 FTB         0.2381
     46 H12        38.5990   41.0411   36.2028 H         1 FTB         0.0595
     47 H13        39.6774   42.3661   35.6476 H         1 FTB         0.0595
     48 H14        40.8061   40.8375   34.0700 H         1 FTB         0.0290
     49 H15        39.6715   39.5127   34.4997 H         1 FTB         0.0290
     50 H16        40.5336   39.7328   36.9071 H         1 FTB         0.0263
     51 H17        41.8246   40.7947   36.2497 H         1 FTB         0.0263
     52 H18        42.6097   38.4545   36.4653 H         1 FTB         0.0230
     53 H19        42.5624   38.9657   34.7439 H         1 FTB         0.0230
     54 H20        41.2713   37.9037   35.4013 H         1 FTB         0.0230
     55 H21        36.1976   39.0958   32.4222 H         1 FTB         0.0732
     56 H22        35.6296   40.1456   31.0799 H         1 FTB         0.0732
     57 H23        34.8477   40.6204   34.7521 H         1 FTB         0.0546
     58 H24        32.5229   40.6032   35.6367 H         1 FTB         0.0565
     59 H25        30.6385   39.9426   34.1505 H         1 FTB         0.0549
     60 H26        31.0783   39.3530   31.7710 H         1 FTB         0.0585
@<TRIPOS>BOND
     1    1    2 2  
     2    2    3 1  
     3    2    4 am 
     4    4    5 1  
     5    5    6 ar 
     6    5    8 ar 
     7    6    7 ar 
     8    7   10 ar 
     9    8    9 ar 
    10    9   10 ar 
    11   10   11 1  
    12   11   12 1  
    13   12   13 1  
    14   12   21 2  
    15   13   14 1  
    16   14   15 1  
    17   14   20 2  
    18   15   16 1  
    19   15   25 am 
    20   16   17 1  
    21   17   18 1  
    22   18   19 1  
    23   20   21 1  
    24   20   22 1  
    25   22   23 2  
    26   22   24 am 
    27   24   25 am 
    28   24   27 1  
    29   25   26 2  
    30   27   28 1  
    31   28   29 ar 
    32   28   33 ar 
    33   29   30 ar 
    34   30   31 ar 
    35   31   32 ar 
    36   32   33 ar 
    37   33   34 1  
    38    3   35 1  
    39    3   36 1  
    40    3   37 1  
    41    4   38 1  
    42    6   39 1  
    43    7   40 1  
    44    8   41 1  
    45    9   42 1  
    46   11   43 1  
    47   11   44 1  
    48   13   45 1  
    49   16   46 1  
    50   16   47 1  
    51   17   48 1  
    52   17   49 1  
    53   18   50 1  
    54   18   51 1  
    55   19   52 1  
    56   19   53 1  
    57   19   54 1  
    58   27   55 1  
    59   27   56 1  
    60   29   57 1  
    61   30   58 1  
    62   31   59 1  
    63   32   60 1  
@<TRIPOS>SUBSTRUCTURE
     1 FTB         1

