### 
### Created by X-TOOL on Mon Sep 10 21:12:50 2018
### 

@<TRIPOS>MOLECULE
1nhz_ligand
   67    71     1     0     0
SMALL
GAST_HUCK


@<TRIPOS>ATOM
      1 O30        -4.5830   18.2170    3.5200 O.2       1 486        -0.4132
      2 C2         -3.9930   17.1990    3.7130 C.2       1 486         0.0822
      3 C1         -4.7010   15.8380    4.0870 C.3       1 486         0.0152
      4 C3         -2.5020   17.0820    3.5340 C.2       1 486        -0.0445
      5 C4         -1.9970   15.8560    3.2290 C.2       1 486        -0.0540
      6 C7         -0.4390   15.7460    3.1050 C.3       1 486        -0.0157
      7 C5         -2.9360   14.7010    3.1750 C.2       1 486        -0.0336
      8 C6         -4.4750   15.0660    2.8400 C.3       1 486        -0.0177
      9 C10        -2.4120   13.4380    3.4880 C.2       1 486        -0.0245
     10 C14        -3.2390   12.0070    3.5310 C.3       1 486         0.0291
     11 C18        -3.1910   11.4060    2.0710 C.ar      1 486        -0.0368
     12 C22        -2.3340   12.0250    1.0580 C.ar      1 486        -0.0683
     13 C23        -2.1730   11.5110   -0.2110 C.ar      1 486        -0.0499
     14 C24        -2.8350   10.2880   -0.5950 C.ar      1 486         0.0336
     15 N27        -2.7790    9.7150   -1.9260 N.pl3     1 486        -0.3183
     16 C29        -3.5420    8.4900   -2.1770 C.3       1 486         0.0139
     17 C28        -2.3710   10.5100   -3.1140 C.3       1 486         0.0139
     18 C25        -3.7120    9.6570    0.4180 C.ar      1 486        -0.0499
     19 C26        -3.8620   10.1890    1.7210 C.ar      1 486        -0.0683
     20 C13        -2.6460   11.0540    4.5960 C.3       1 486        -0.0192
     21 C12        -1.1360   11.0380    5.0070 C.3       1 486         0.0178
     22 C19        -0.4170   10.1100    3.8580 C.3       1 486        -0.0552
     23 C17        -0.8530   10.3480    6.3800 C.3       1 486         0.1325
     24 C31        -1.5870   10.8820    7.5980 C.1       1 486        -0.0673
     25 C30        -2.4850   11.0420    8.3910 C.1       1 486        -0.1027
     26 C32        -3.1640   11.4480    9.6560 C.3       1 486        -0.0025
     27 O3         -0.9200    8.8980    6.3080 O.3       1 486        -0.3760
     28 C16         0.6230   10.8610    6.4670 C.3       1 486        -0.0116
     29 C15         0.6840   12.2590    5.7760 C.3       1 486        -0.0433
     30 C11        -0.7620   12.5550    5.1970 C.3       1 486        -0.0150
     31 C9         -0.8190   13.3590    3.8950 C.3       1 486         0.0085
     32 C8         -0.0450   14.7230    4.1340 C.3       1 486        -0.0245
     33 H1         -5.7730   15.9796    4.2886 H         1 486         0.0481
     34 H2         -4.2251   15.3573    4.9544 H         1 486         0.0481
     35 H3         -1.8512   17.9481    3.6448 H         1 486         0.0233
     36 H4          0.0365   16.7145    3.3192 H         1 486         0.0461
     37 H5         -0.1528   15.4120    2.0968 H         1 486         0.0461
     38 H6         -4.5828   15.6772    1.9318 H         1 486         0.0369
     39 H7         -5.1193   14.1778    2.7628 H         1 486         0.0369
     40 H8         -4.2876   12.2039    3.7985 H         1 486         0.0659
     41 H9         -1.8001   12.9317    1.3186 H         1 486         0.0532
     42 H10        -1.5443   12.0296   -0.9257 H         1 486         0.0500
     43 H11        -3.4019    8.1786   -3.2227 H         1 486         0.0475
     44 H12        -4.6096    8.6782   -1.9904 H         1 486         0.0475
     45 H13        -3.1874    7.6933   -1.5065 H         1 486         0.0475
     46 H14        -1.8091   11.3970   -2.7862 H         1 486         0.0475
     47 H15        -3.2667   10.8275   -3.6680 H         1 486         0.0475
     48 H16        -1.7353    9.8939   -3.7668 H         1 486         0.0475
     49 H17        -4.2569    8.7582    0.1528 H         1 486         0.0500
     50 H18        -4.4810    9.6788    2.4501 H         1 486         0.0532
     51 H19        -2.8710   10.0361    4.2448 H         1 486         0.0324
     52 H20        -3.2056   11.2547    5.5215 H         1 486         0.0324
     53 H21        -0.5880   10.5556    2.8669 H         1 486         0.0237
     54 H22        -0.8456    9.0973    3.8835 H         1 486         0.0237
     55 H23         0.6640   10.0557    4.0540 H         1 486         0.0237
     56 H24        -4.2351   11.2059    9.5912 H         1 486         0.0362
     57 H25        -3.0413   12.5307    9.8069 H         1 486         0.0362
     58 H26        -2.7163   10.9067   10.5025 H         1 486         0.0362
     59 H27        -1.8287    8.6264    6.2541 H         1 486         0.2114
     60 H28         1.2942   10.1589    5.9507 H         1 486         0.0303
     61 H29         0.9264   10.9509    7.5205 H         1 486         0.0303
     62 H30         1.4217   12.2450    4.9602 H         1 486         0.0272
     63 H31         0.9624   13.0306    6.5089 H         1 486         0.0272
     64 H32        -1.4028   13.0552    5.9380 H         1 486         0.0341
     65 H33        -0.2931   12.8164    3.0956 H         1 486         0.0530
     66 H34        -0.2895   15.1060    5.1358 H         1 486         0.0325
     67 H35         1.0376   14.5404    4.0654 H         1 486         0.0325
@<TRIPOS>BOND
     1    1    2 2  
     2    2    3 1  
     3    2    4 1  
     4    3    8 1  
     5    4    5 2  
     6    5    6 1  
     7    5    7 1  
     8    6   32 1  
     9    7    8 1  
    10    7    9 2  
    11    9   10 1  
    12    9   31 1  
    13   10   11 1  
    14   10   20 1  
    15   11   12 ar 
    16   11   19 ar 
    17   12   13 ar 
    18   13   14 ar 
    19   14   15 1  
    20   14   18 ar 
    21   15   16 1  
    22   15   17 1  
    23   18   19 ar 
    24   20   21 1  
    25   21   22 1  
    26   21   23 1  
    27   21   30 1  
    28   23   24 1  
    29   23   27 1  
    30   23   28 1  
    31   24   25 3  
    32   25   26 1  
    33   28   29 1  
    34   29   30 1  
    35   30   31 1  
    36   31   32 1  
    37    3   33 1  
    38    3   34 1  
    39    4   35 1  
    40    6   36 1  
    41    6   37 1  
    42    8   38 1  
    43    8   39 1  
    44   10   40 1  
    45   12   41 1  
    46   13   42 1  
    47   16   43 1  
    48   16   44 1  
    49   16   45 1  
    50   17   46 1  
    51   17   47 1  
    52   17   48 1  
    53   18   49 1  
    54   19   50 1  
    55   20   51 1  
    56   20   52 1  
    57   22   53 1  
    58   22   54 1  
    59   22   55 1  
    60   26   56 1  
    61   26   57 1  
    62   26   58 1  
    63   27   59 1  
    64   28   60 1  
    65   28   61 1  
    66   29   62 1  
    67   29   63 1  
    68   30   64 1  
    69   31   65 1  
    70   32   66 1  
    71   32   67 1  
@<TRIPOS>SUBSTRUCTURE
     1 486         1

