### 
### Created by X-TOOL on Mon Sep 10 21:12:52 2018
### 

@<TRIPOS>MOLECULE
1ni1_ligand
   50    53     1     0     0
SMALL
GAST_HUCK


@<TRIPOS>ATOM
      1 O2         50.3780   48.9040   -1.2380 O.3       1 2C5        -0.3317
      2 C38        50.8460   47.6040   -0.8410 C.3       1 2C5         0.1541
      3 C40        52.1080   47.7610    0.0520 C.ar      1 2C5         0.0080
      4 C43        52.0700   47.4920    1.4600 C.ar      1 2C5        -0.0443
      5 C44        53.2300   47.6620    2.2760 C.ar      1 2C5        -0.0332
      6 C45        54.4340   48.1010    1.6830 C.ar      1 2C5         0.0883
      7 C46        54.4870   48.3620    0.3070 C.ar      1 2C5        -0.0332
      8 C47        53.3440   48.1980   -0.4920 C.ar      1 2C5        -0.0443
      9 C52        54.6030   52.0260    1.7970 C.ar      1 2C5        -0.0485
     10 C53        54.7530   51.7970    0.4120 C.ar      1 2C5         0.0403
     11 CL1        56.3190   51.4400   -0.2150 Cl        1 2C5        -0.0709
     12 C65        55.6090   48.3000    2.4660 C.1       1 2C5         0.0933
     13 C7         53.6440   51.8490   -0.4710 C.ar      1 2C5        -0.0408
     14 N1         56.5540   48.5140    3.0970 N.1       1 2C5        -0.3339
     15 C2         53.3150   52.3150    2.2960 C.ar      1 2C5        -0.0615
     16 C3         52.3520   52.1410    0.0300 C.ar      1 2C5        -0.0136
     17 C4         52.2020   52.3700    1.4150 C.ar      1 2C5        -0.0546
     18 C1         50.1050   49.9440   -0.2770 C.3       1 2C5         0.1071
     19 N3         51.7230   45.4050   -3.9430 N.2       1 2C5        -0.3423
     20 C10        52.0480   46.0740   -2.6820 C.2       1 2C5        -0.0220
     21 C12        50.9830   46.7490   -2.1600 C.2       1 2C5         0.0964
     22 N4         49.9210   46.4700   -3.1740 N.pl3     1 2C5        -0.2469
     23 C5         50.4440   45.6930   -4.1330 C.2       1 2C5         0.0904
     24 C15        48.5250   46.9280   -3.1520 C.3       1 2C5         0.0473
     25 N2         49.1190   51.4100   -1.8960 N.ar      1 2C5        -0.2665
     26 C11        50.1570   51.2340   -1.0370 C.ar      1 2C5         0.0693
     27 C13        51.1780   52.2130   -0.9020 C.ar      1 2C5         0.0219
     28 C14        51.0640   53.3740   -1.7000 C.ar      1 2C5        -0.0086
     29 C17        49.9880   53.5410   -2.6060 C.ar      1 2C5         0.1318
     30 C6         49.0090   52.5210   -2.6670 C.ar      1 2C5         0.1459
     31 C9         49.9060   54.7340   -3.4130 C.1       1 2C5         0.1009
     32 N5         49.8260   55.6580   -4.0990 N.1       1 2C5        -0.3317
     33 CL2        47.6380   52.6460   -3.7290 Cl        1 2C5        -0.0295
     34 H1         50.0766   47.1226   -0.2195 H         1 2C5         0.0962
     35 H2         51.1450   47.1538    1.9129 H         1 2C5         0.0587
     36 H3         53.1865   47.4562    3.3394 H         1 2C5         0.0701
     37 H4         55.4161   48.6925   -0.1432 H         1 2C5         0.0701
     38 H5         53.4073   48.4109   -1.5530 H         1 2C5         0.0587
     39 H6         55.4578   51.9809    2.4621 H         1 2C5         0.0618
     40 H7         53.7856   51.6651   -1.5299 H         1 2C5         0.0623
     41 H8         53.1744   52.4957    3.3556 H         1 2C5         0.0616
     42 H9         51.2188   52.5920    1.8138 H         1 2C5         0.0618
     43 H10        50.8649   49.9383    0.5183 H         1 2C5         0.0783
     44 H11        49.1086   49.8021    0.1668 H         1 2C5         0.0783
     45 H12        53.0301   46.0371   -2.2129 H         1 2C5         0.0335
     46 H13        49.8720   45.3329   -4.9868 H         1 2C5         0.1155
     47 H14        48.3570   47.5494   -2.2600 H         1 2C5         0.0584
     48 H15        47.8537   46.0570   -3.1238 H         1 2C5         0.0584
     49 H16        48.3192   47.5205   -4.0556 H         1 2C5         0.0584
     50 H17        51.8146   54.1517   -1.6171 H         1 2C5         0.0811
@<TRIPOS>BOND
     1    1    2 1  
     2   18    1 1  
     3    2    3 1  
     4    2   21 1  
     5    3    4 ar 
     6    3    8 ar 
     7    4    5 ar 
     8    5    6 ar 
     9    7    6 ar 
    10    6   12 1  
    11    8    7 ar 
    12   10    9 ar 
    13   15    9 ar 
    14   10   11 1  
    15   13   10 ar 
    16   12   14 3  
    17   16   13 ar 
    18   17   15 ar 
    19   16   17 ar 
    20   27   16 1  
    21   26   18 1  
    22   20   19 1  
    23   23   19 2  
    24   21   20 2  
    25   21   22 1  
    26   22   23 1  
    27   22   24 1  
    28   26   25 ar 
    29   25   30 ar 
    30   26   27 ar 
    31   27   28 ar 
    32   28   29 ar 
    33   29   30 ar 
    34   29   31 1  
    35   30   33 1  
    36   31   32 3  
    37    2   34 1  
    38    4   35 1  
    39    5   36 1  
    40    7   37 1  
    41    8   38 1  
    42    9   39 1  
    43   13   40 1  
    44   15   41 1  
    45   17   42 1  
    46   18   43 1  
    47   18   44 1  
    48   20   45 1  
    49   23   46 1  
    50   24   47 1  
    51   24   48 1  
    52   24   49 1  
    53   28   50 1  
@<TRIPOS>SUBSTRUCTURE
     1 2C5         1

