### 
### Created by X-TOOL on Mon Sep 10 21:12:50 2018
### 

@<TRIPOS>MOLECULE
1nj1_ligand
   49    51     1     0     0
SMALL
GAST_HUCK


@<TRIPOS>ATOM
      1 N         -35.9760  -79.8260  -41.0890 N.4       1 5CA         0.2385
      2 CA        -34.5200  -79.9190  -41.0260 C.3       1 5CA         0.0754
      3 CB        -33.8810  -78.5490  -40.9800 C.3       1 5CA         0.0512
      4 SG        -34.8610  -77.4050  -40.0070 S.3       1 5CA        -0.1701
      5 C         -34.1460  -80.6510  -39.7710 C.2       1 5CA         0.2468
      6 O         -34.9160  -81.1100  -38.9640 O.2       1 5CA        -0.3891
      7 N3S       -32.9120  -81.2250  -39.8930 N.am      1 5CA        -0.1294
      8 S         -32.2610  -82.2960  -38.8900 S.o2      1 5CA         0.1859
      9 O1S       -33.1810  -83.4350  -38.7140 O.2       1 5CA        -0.1218
     10 O2S       -30.9160  -82.5760  -39.4920 O.2       1 5CA        -0.1218
     11 O5        -32.0400  -81.5710  -37.4770 O.3       1 5CA        -0.2161
     12 C5        -31.4750  -80.2500  -37.3870 C.3       1 5CA         0.1073
     13 C4        -30.3270  -80.1980  -36.4020 C.3       1 5CA         0.1161
     14 O4        -30.7980  -80.4420  -35.0510 O.3       1 5CA        -0.3367
     15 C3        -29.2370  -81.2230  -36.6300 C.3       1 5CA         0.1146
     16 O3        -28.2750  -80.6930  -37.5440 O.3       1 5CA        -0.3864
     17 C2        -28.6750  -81.4880  -35.2420 C.3       1 5CA         0.1385
     18 O2        -27.5650  -80.6710  -34.9240 O.3       1 5CA        -0.3836
     19 C1        -29.8410  -81.1920  -34.3160 C.3       1 5CA         0.2010
     20 N9        -30.5320  -82.3740  -33.7320 N.pl3     1 5CA        -0.1919
     21 C8        -31.1910  -83.4110  -34.3680 C.2       1 5CA         0.1123
     22 N7        -31.7090  -84.3000  -33.5380 N.2       1 5CA        -0.2958
     23 C5        -31.3760  -83.8280  -32.2790 C.ar      1 5CA         0.1045
     24 C6        -31.6320  -84.3100  -30.9510 C.ar      1 5CA         0.1298
     25 N6        -32.3150  -85.4240  -30.6890 N.pl3     1 5CA        -0.3152
     26 N1        -31.1510  -83.5890  -29.8880 N.ar      1 5CA        -0.2698
     27 C2        -30.4530  -82.4460  -30.1300 C.ar      1 5CA         0.0533
     28 N3        -30.1550  -81.8980  -31.3360 N.ar      1 5CA        -0.2714
     29 C4        -30.6460  -82.6400  -32.3750 C.ar      1 5CA         0.1613
     30 H1        -36.2454  -79.3360  -41.9277 H         1 5CA         0.2015
     31 H2        -36.3159  -79.3247  -40.2832 H         1 5CA         0.2015
     32 H3        -36.3718  -80.7530  -41.0996 H         1 5CA         0.2015
     33 H4        -34.1505  -80.4660  -41.9059 H         1 5CA         0.1107
     34 H5        -33.7907  -78.1611  -42.0054 H         1 5CA         0.0455
     35 H6        -32.8805  -78.6352  -40.5311 H         1 5CA         0.0455
     36 H7        -34.4100  -76.5035  -39.9956 H         1 5CA         0.1020
     37 H8        -32.3621  -80.9519  -40.6823 H         1 5CA         0.2167
     38 H9        -32.2573  -79.5492  -37.0600 H         1 5CA         0.0611
     39 H10       -31.1068  -79.9514  -38.3796 H         1 5CA         0.0611
     40 H11       -29.8833  -79.1933  -36.4617 H         1 5CA         0.0648
     41 H12       -29.6543  -82.1507  -37.0487 H         1 5CA         0.0648
     42 H13       -27.8969  -79.9011  -37.1801 H         1 5CA         0.2100
     43 H14       -28.3720  -82.5418  -35.1546 H         1 5CA         0.0676
     44 H15       -26.8683  -80.8274  -35.5506 H         1 5CA         0.2101
     45 H16       -29.4609  -80.5822  -33.4831 H         1 5CA         0.0996
     46 H17       -31.2751  -83.4877  -35.4510 H         1 5CA         0.1349
     47 H18       -32.4659  -85.7182  -29.7135 H         1 5CA         0.1820
     48 H19       -32.6920  -85.9908  -31.4620 H         1 5CA         0.1820
     49 H20       -30.0931  -81.9109  -29.2586 H         1 5CA         0.0996
@<TRIPOS>BOND
     1    1    2 1  
     2    2    3 1  
     3    2    5 1  
     4    3    4 1  
     5    5    6 2  
     6    5    7 am 
     7    7    8 am 
     8    8    9 2  
     9    8   10 2  
    10    8   11 1  
    11   11   12 1  
    12   12   13 1  
    13   13   14 1  
    14   13   15 1  
    15   14   19 1  
    16   15   16 1  
    17   15   17 1  
    18   17   18 1  
    19   17   19 1  
    20   19   20 1  
    21   20   21 1  
    22   20   29 1  
    23   21   22 2  
    24   22   23 1  
    25   23   24 ar 
    26   23   29 ar 
    27   24   25 1  
    28   24   26 ar 
    29   26   27 ar 
    30   27   28 ar 
    31   28   29 ar 
    32    1   30 1  
    33    1   31 1  
    34    1   32 1  
    35    2   33 1  
    36    3   34 1  
    37    3   35 1  
    38    4   36 1  
    39    7   37 1  
    40   12   38 1  
    41   12   39 1  
    42   13   40 1  
    43   15   41 1  
    44   16   42 1  
    45   17   43 1  
    46   18   44 1  
    47   19   45 1  
    48   21   46 1  
    49   25   47 1  
    50   25   48 1  
    51   27   49 1  
@<TRIPOS>SUBSTRUCTURE
     1 5CA         1

