### 
### Created by X-TOOL on Mon Sep 10 21:12:50 2018
### 

@<TRIPOS>MOLECULE
1nj5_ligand
   52    55     1     0     0
SMALL
GAST_HUCK


@<TRIPOS>ATOM
      1 CB        -33.8120  -78.6330  -41.0350 C.3       1 P5A         0.0128
      2 CG        -34.6990  -77.7560  -40.1660 C.3       1 P5A        -0.0053
      3 C         -34.2250  -80.8960  -39.9730 C.2       1 P5A         0.2460
      4 O         -35.0350  -81.1790  -39.0820 O.2       1 P5A        -0.3891
      5 N         -36.0370  -79.5520  -40.9990 N.4       1 P5A         0.2462
      6 CD        -36.1590  -78.1620  -40.5100 C.3       1 P5A        -0.0313
      7 CA        -34.6190  -79.9300  -41.1030 C.3       1 P5A         0.0685
      8 N3S       -32.9820  -81.3910  -40.0110 N.am      1 P5A        -0.1294
      9 S         -32.3650  -82.3860  -38.9380 S.o2      1 P5A         0.1859
     10 O1S       -33.2810  -83.5300  -38.7480 O.2       1 P5A        -0.1218
     11 O2S       -30.9780  -82.6450  -39.4540 O.2       1 P5A        -0.1218
     12 O5        -32.2310  -81.5750  -37.5700 O.3       1 P5A        -0.2161
     13 C5        -31.4920  -80.3370  -37.5110 C.3       1 P5A         0.1073
     14 C4        -30.3650  -80.3880  -36.4960 C.3       1 P5A         0.1161
     15 O4        -30.9010  -80.6470  -35.1770 O.3       1 P5A        -0.3367
     16 C1        -29.9890  -81.4020  -34.4060 C.3       1 P5A         0.2010
     17 N9        -30.6730  -82.5670  -33.8150 N.pl3     1 P5A        -0.1919
     18 C4        -30.7710  -82.8100  -32.4510 C.ar      1 P5A         0.1613
     19 N3        -30.2670  -82.0510  -31.4230 N.ar      1 P5A        -0.2714
     20 C2        -30.5510  -82.5820  -30.2240 C.ar      1 P5A         0.0533
     21 N1        -31.2470  -83.7160  -29.9550 N.ar      1 P5A        -0.2698
     22 C6        -31.7410  -84.4570  -30.9940 C.ar      1 P5A         0.1298
     23 N6        -32.4220  -85.5610  -30.7000 N.pl3     1 P5A        -0.3152
     24 C5        -31.5060  -83.9940  -32.3310 C.ar      1 P5A         0.1045
     25 N7        -31.8500  -84.4870  -33.5800 N.2       1 P5A        -0.2958
     26 C8        -31.3400  -83.6100  -34.4210 C.2       1 P5A         0.1123
     27 C2        -28.7710  -81.6700  -35.2950 C.3       1 P5A         0.1385
     28 O2        -27.7780  -80.7320  -34.9190 O.3       1 P5A        -0.3836
     29 C3        -29.3420  -81.4940  -36.6970 C.3       1 P5A         0.1146
     30 O3        -28.3540  -81.0540  -37.6250 O.3       1 P5A        -0.3864
     31 H1        -32.8301  -78.7970  -40.5670 H         1 P5A         0.0347
     32 H2        -33.6733  -78.1955  -42.0346 H         1 P5A         0.0347
     33 H3        -34.5320  -76.6936  -40.3969 H         1 P5A         0.0320
     34 H4        -34.4916  -77.9368  -39.1010 H         1 P5A         0.0320
     35 H5        -36.4687  -79.6249  -41.9070 H         1 P5A         0.2035
     36 H6        -36.5011  -80.1736  -40.3554 H         1 P5A         0.2035
     37 H7        -36.5733  -77.5076  -41.2911 H         1 P5A         0.0814
     38 H8        -36.7986  -78.1165  -39.6162 H         1 P5A         0.0814
     39 H9        -34.4386  -80.4248  -42.0687 H         1 P5A         0.1099
     40 H10       -32.3973  -81.1131  -40.7731 H         1 P5A         0.2167
     41 H11       -32.1815  -79.5260  -37.2337 H         1 P5A         0.0611
     42 H12       -31.0651  -80.1320  -38.5038 H         1 P5A         0.0611
     43 H13       -29.8503  -79.4160  -36.5139 H         1 P5A         0.0648
     44 H14       -29.6442  -80.7830  -33.5646 H         1 P5A         0.0996
     45 H15       -30.1785  -82.0381  -29.3635 H         1 P5A         0.0996
     46 H16       -32.8089  -86.1441  -31.4558 H         1 P5A         0.1820
     47 H17       -32.5625  -85.8329  -29.7165 H         1 P5A         0.1820
     48 H18       -31.4371  -83.7014  -35.5018 H         1 P5A         0.1349
     49 H19       -28.3800  -82.6902  -35.1671 H         1 P5A         0.0676
     50 H20       -27.0013  -80.8649  -35.4497 H         1 P5A         0.2101
     51 H21       -29.8081  -82.4228  -37.0575 H         1 P5A         0.0648
     52 H22       -27.6537  -81.6945  -37.6677 H         1 P5A         0.2100
@<TRIPOS>BOND
     1    1    2 1  
     2    7    1 1  
     3    2    6 1  
     4    3    4 2  
     5    3    7 1  
     6    3    8 am 
     7    6    5 1  
     8    5    7 1  
     9    8    9 am 
    10    9   10 2  
    11    9   11 2  
    12    9   12 1  
    13   12   13 1  
    14   13   14 1  
    15   14   15 1  
    16   14   29 1  
    17   15   16 1  
    18   16   17 1  
    19   16   27 1  
    20   17   18 1  
    21   17   26 1  
    22   18   19 ar 
    23   18   24 ar 
    24   19   20 ar 
    25   20   21 ar 
    26   21   22 ar 
    27   22   23 1  
    28   22   24 ar 
    29   24   25 1  
    30   25   26 2  
    31   27   28 1  
    32   27   29 1  
    33   29   30 1  
    34    1   31 1  
    35    1   32 1  
    36    2   33 1  
    37    2   34 1  
    38    5   35 1  
    39    5   36 1  
    40    6   37 1  
    41    6   38 1  
    42    7   39 1  
    43    8   40 1  
    44   13   41 1  
    45   13   42 1  
    46   14   43 1  
    47   16   44 1  
    48   20   45 1  
    49   23   46 1  
    50   23   47 1  
    51   26   48 1  
    52   27   49 1  
    53   28   50 1  
    54   29   51 1  
    55   30   52 1  
@<TRIPOS>SUBSTRUCTURE
     1 P5A         1

