### 
### Created by X-TOOL on Mon Sep 10 21:12:51 2018
### 

@<TRIPOS>MOLECULE
1njj_ligand
   78    80     1     0     0
SMALL
GAST_HUCK


@<TRIPOS>ATOM
      1 C11        76.6540   85.3650  121.5890 C.3       1 GET         0.2059
      2 O11        77.3340   84.0990  121.4000 O.3       1 GET        -0.3348
      3 C21        76.3600   85.9900  120.2060 C.3       1 GET         0.0567
      4 N21        77.6220   86.1750  119.4660 N.4       1 GET         0.2263
      5 C31        75.6440   87.3360  120.3650 C.3       1 GET         0.1304
      6 O31        74.3610   87.1160  120.9630 O.3       1 GET        -0.3834
      7 C41        76.4420   88.3170  121.2370 C.3       1 GET         0.1150
      8 O41        77.5060   88.8350  120.4610 O.3       1 GET        -0.3864
      9 C51        77.0310   87.6670  122.5360 C.3       1 GET         0.1158
     10 O51        77.4600   86.2540  122.4280 O.3       1 GET        -0.3378
     11 C61        76.0270   87.8530  123.7010 C.3       1 GET         0.0811
     12 O61        76.4320   87.0270  124.8460 O.3       1 GET        -0.3894
     13 C71        75.9890   89.3340  124.1430 C.3       1 GET        -0.0364
     14 C12        75.7750   80.0440  120.8100 C.3       1 GET         0.0104
     15 N12        74.6740   79.0710  120.9310 N.4       1 GET         0.2228
     16 C22        76.1510   80.5580  122.2340 C.3       1 GET         0.0381
     17 C32        77.0880   81.7900  122.1970 C.3       1 GET         0.0104
     18 N32        77.3590   82.2350  123.5720 N.4       1 GET         0.2228
     19 C42        76.4500   82.9440  121.3810 C.3       1 GET         0.1326
     20 C52        76.1880   82.4780  119.9110 C.3       1 GET         0.1181
     21 O52        75.4840   83.4840  119.1890 O.3       1 GET        -0.3862
     22 C62        75.3420   81.1800  119.8140 C.3       1 GET         0.1325
     23 O62        75.4570   80.7000  118.4680 O.3       1 GET        -0.3371
     24 C13        74.1600   80.5820  117.8770 C.3       1 GET         0.1911
     25 C23        73.8880   79.1610  117.3140 C.3       1 GET         0.1509
     26 O23        75.0330   78.7390  116.5670 O.3       1 GET        -0.3812
     27 C33        72.6320   79.0880  116.3720 C.3       1 GET         0.0397
     28 N33        71.5990   78.2740  117.0700 N.4       1 GET         0.2310
     29 C93        71.8590   76.8330  116.8420 C.3       1 GET        -0.0444
     30 C43        71.9670   80.4490  115.8590 C.3       1 GET         0.1311
     31 O43        70.6630   80.5350  116.3930 O.3       1 GET        -0.3809
     32 C83        71.8540   80.3780  114.3230 C.3       1 GET        -0.0285
     33 C53        72.7420   81.7670  116.2350 C.3       1 GET         0.0846
     34 O53        74.0710   81.5320  116.7900 O.3       1 GET        -0.3455
     35 H1         75.6975   85.1816  122.1003 H         1 GET         0.0970
     36 H2         75.7098   85.3078  119.6387 H         1 GET         0.0927
     37 H3         77.4265   86.5826  118.5650 H         1 GET         0.2000
     38 H4         78.0718   85.2818  119.3402 H         1 GET         0.2000
     39 H5         78.2303   86.7872  119.9868 H         1 GET         0.2000
     40 H6         75.5082   87.7818  119.3686 H         1 GET         0.0679
     41 H7         73.8470   86.5436  120.4056 H         1 GET         0.2102
     42 H8         75.7744   89.1389  121.5349 H         1 GET         0.0648
     43 H9         78.0113   89.4449  120.9855 H         1 GET         0.2100
     44 H10        77.9357   88.2406  122.7862 H         1 GET         0.0650
     45 H11        75.0250   87.5471  123.3657 H         1 GET         0.0617
     46 H12        75.8121   87.1461  125.5560 H         1 GET         0.2099
     47 H13        75.2730   89.4516  124.9697 H         1 GET         0.0255
     48 H14        75.6767   89.9617  123.2954 H         1 GET         0.0255
     49 H15        76.9902   89.6424  124.4784 H         1 GET         0.0255
     50 H16        76.6558   79.5387  120.3872 H         1 GET         0.0878
     51 H17        74.9423   78.3376  121.5684 H         1 GET         0.1998
     52 H18        74.4757   78.6737  120.0261 H         1 GET         0.1998
     53 H19        73.8513   79.5363  121.2813 H         1 GET         0.1998
     54 H20        76.6573   79.7472  122.7784 H         1 GET         0.0377
     55 H21        75.2273   80.8343  122.7636 H         1 GET         0.0377
     56 H22        78.0362   81.5020  121.7195 H         1 GET         0.0878
     57 H23        77.9690   83.0372  123.5514 H         1 GET         0.1998
     58 H24        77.8020   81.4892  124.0854 H         1 GET         0.1998
     59 H25        76.4919   82.4837  124.0218 H         1 GET         0.1998
     60 H26        75.4905   83.2214  121.8418 H         1 GET         0.0681
     61 H27        77.1622   82.3004  119.4320 H         1 GET         0.0649
     62 H28        74.6511   83.6527  119.6137 H         1 GET         0.2100
     63 H29        74.2924   81.4334  120.0238 H         1 GET         0.0681
     64 H30        73.3994   80.8148  118.6368 H         1 GET         0.0939
     65 H31        73.7294   78.4765  118.1603 H         1 GET         0.0703
     66 H32        75.7928   78.7216  117.1370 H         1 GET         0.2103
     67 H33        72.9511   78.5455  115.4698 H         1 GET         0.0907
     68 H34        70.6873   78.5106  116.7111 H         1 GET         0.2015
     69 H35        71.6316   78.4678  118.0586 H         1 GET         0.2015
     70 H36        71.0936   76.2360  117.3594 H         1 GET         0.0777
     71 H37        72.8534   76.5733  117.2340 H         1 GET         0.0777
     72 H38        71.8229   76.6200  115.7634 H         1 GET         0.0777
     73 H39        70.2533   81.3395  116.0972 H         1 GET         0.2105
     74 H40        71.3983   81.3053  113.9456 H         1 GET         0.0260
     75 H41        71.2264   79.5198  114.0408 H         1 GET         0.0260
     76 H42        72.8566   80.2583  113.8867 H         1 GET         0.0260
     77 H43        72.1482   82.3180  116.9791 H         1 GET         0.0591
     78 H44        72.8489   82.3775  115.3262 H         1 GET         0.0591
@<TRIPOS>BOND
     1    2    1 1  
     2    1    3 1  
     3    1   10 1  
     4   19    2 1  
     5    3    4 1  
     6    3    5 1  
     7    5    6 1  
     8    5    7 1  
     9    7    8 1  
    10    9    7 1  
    11   10    9 1  
    12    9   11 1  
    13   11   12 1  
    14   11   13 1  
    15   14   15 1  
    16   16   14 1  
    17   17   16 1  
    18   17   18 1  
    19   19   17 1  
    20   19   20 1  
    21   20   21 1  
    22   20   22 1  
    23   22   14 1  
    24   22   23 1  
    25   23   24 1  
    26   24   25 1  
    27   24   34 1  
    28   25   26 1  
    29   25   27 1  
    30   27   28 1  
    31   27   30 1  
    32   28   29 1  
    33   30   31 1  
    34   30   32 1  
    35   30   33 1  
    36   33   34 1  
    37    1   35 1  
    38    3   36 1  
    39    4   37 1  
    40    4   38 1  
    41    4   39 1  
    42    5   40 1  
    43    6   41 1  
    44    7   42 1  
    45    8   43 1  
    46    9   44 1  
    47   11   45 1  
    48   12   46 1  
    49   13   47 1  
    50   13   48 1  
    51   13   49 1  
    52   14   50 1  
    53   15   51 1  
    54   15   52 1  
    55   15   53 1  
    56   16   54 1  
    57   16   55 1  
    58   17   56 1  
    59   18   57 1  
    60   18   58 1  
    61   18   59 1  
    62   19   60 1  
    63   20   61 1  
    64   21   62 1  
    65   22   63 1  
    66   24   64 1  
    67   25   65 1  
    68   26   66 1  
    69   27   67 1  
    70   28   68 1  
    71   28   69 1  
    72   29   70 1  
    73   29   71 1  
    74   29   72 1  
    75   31   73 1  
    76   32   74 1  
    77   32   75 1  
    78   32   76 1  
    79   33   77 1  
    80   33   78 1  
@<TRIPOS>SUBSTRUCTURE
     1 GET         1

