### 
### Created by X-TOOL on Mon Sep 10 21:12:50 2018
### 

@<TRIPOS>MOLECULE
1njs_ligand
   62    63     1     0     0
SMALL
GAST_HUCK


@<TRIPOS>ATOM
      1 O4         72.8400   19.0450   38.0060 O.co2     1 KEU        -0.5690
      2 C21        74.1420   19.1610   37.8330 C.2       1 KEU         0.0350
      3 O5         74.9970   18.3170   38.1130 O.co2     1 KEU        -0.5690
      4 C20        74.4610   20.4780   37.2500 C.3       1 KEU         0.0038
      5 C19        75.9560   20.7030   37.0350 C.3       1 KEU        -0.0064
      6 C17        76.2790   22.0330   36.4470 C.3       1 KEU         0.0953
      7 N          75.5580   22.0070   35.1200 N.am      1 KEU        -0.2716
      8 C          74.6150   22.9670   34.7900 C.2       1 KEU         0.2016
      9 O          74.3110   23.8530   35.5570 O.2       1 KEU        -0.3877
     10 C14        74.0250   22.9100   33.4760 C.ar      1 KEU         0.0428
     11 C13        73.0940   24.0280   33.1320 C.ar      1 KEU        -0.0485
     12 C12        72.5060   24.0940   31.8190 C.ar      1 KEU        -0.0540
     13 C11        72.8640   22.9760   30.8200 C.ar      1 KEU        -0.0298
     14 C16        73.7620   21.8770   31.2140 C.ar      1 KEU        -0.0540
     15 C15        74.3460   21.8270   32.5030 C.ar      1 KEU        -0.0485
     16 C10        72.3640   22.9160   29.2740 C.3       1 KEU         0.0577
     17 C1         73.4310   22.2360   28.3980 C.3       1 KEU        -0.0338
     18 C2         74.4790   23.5450   28.1090 C.3       1 KEU        -0.0495
     19 C3         75.2560   23.5310   26.7410 C.3       1 KEU        -0.0384
     20 C4         76.5150   24.2100   27.1830 C.2       1 KEU         0.0164
     21 C9         76.4070   25.5120   26.8780 C.2       1 KEU         0.1866
     22 O1         75.4060   26.2830   26.2700 O.2       1 KEU        -0.4271
     23 N3         77.5190   26.6430   27.1670 N.am      1 KEU        -0.1876
     24 C8         78.6530   26.2130   27.7690 C.2       1 KEU         0.2356
     25 N2         79.6460   27.0650   28.0610 N.pl3     1 KEU        -0.2801
     26 N1         78.7960   24.9900   28.0380 N.2       1 KEU        -0.2805
     27 C7         77.8090   23.9140   27.8210 C.2       1 KEU         0.0603
     28 N8         78.1340   22.6330   28.2050 N.pl3     1 KEU        -0.3328
     29 C5         70.9590   22.3460   28.8430 C.3       1 KEU         0.2766
     30 OA2        70.4950   22.7470   27.8530 O.3       1 KEU        -0.3562
     31 OA1        70.0730   23.1390   29.9110 O.3       1 KEU        -0.3562
     32 C6         70.5640   20.9330   29.3290 C.3       1 KEU         0.4464
     33 F2         70.6650   20.6050   30.6730 F         1 KEU        -0.1653
     34 F1         71.5150   20.2140   28.7430 F         1 KEU        -0.1653
     35 F          69.3330   20.6340   28.8810 F         1 KEU        -0.1653
     36 C18        77.8240   22.3670   36.2490 C.2       1 KEU         0.0601
     37 O3         78.4540   22.7900   37.2050 O.co2     1 KEU        -0.5666
     38 O2         78.4420   22.1830   35.0300 O.co2     1 KEU        -0.5666
     39 H1         74.0853   21.2589   37.9275 H         1 KEU         0.0432
     40 H2         73.9532   20.5606   36.2778 H         1 KEU         0.0432
     41 H3         76.3315   19.9224   36.3571 H         1 KEU         0.0323
     42 H4         76.4638   20.6197   38.0072 H         1 KEU         0.0323
     43 H5         75.8540   22.8177   37.0902 H         1 KEU         0.0726
     44 H6         75.7659   21.2806   34.4649 H         1 KEU         0.1866
     45 H7         72.8619   24.7877   33.8696 H         1 KEU         0.0652
     46 H8         71.8361   24.9004   31.5433 H         1 KEU         0.0570
     47 H9         73.9805   21.0895   30.5019 H         1 KEU         0.0570
     48 H10        75.0130   21.0176   32.7768 H         1 KEU         0.0652
     49 H11        72.3300   23.9727   28.9703 H         1 KEU         0.0527
     50 H12        73.0008   21.8467   27.4634 H         1 KEU         0.0294
     51 H13        73.9382   21.4213   28.9355 H         1 KEU         0.0294
     52 H14        75.2250   23.5611   28.9172 H         1 KEU         0.0276
     53 H15        73.8802   24.4671   28.1442 H         1 KEU         0.0276
     54 H16        74.7304   24.1024   25.9617 H         1 KEU         0.0305
     55 H17        75.4426   22.5079   26.3826 H         1 KEU         0.0305
     56 H18        77.3800   27.6013   26.9175 H         1 KEU         0.2521
     57 H19        80.5019   26.7208   28.5191 H         1 KEU         0.1900
     58 H20        79.5530   28.0638   27.8272 H         1 KEU         0.1900
     59 H21        79.0435   22.4438   28.6499 H         1 KEU         0.1753
     60 H22        77.4677   21.8635   28.0475 H         1 KEU         0.1753
     61 H23        70.5989   23.6906   27.8153 H         1 KEU         0.2132
     62 H24        70.1861   24.0735   29.7832 H         1 KEU         0.2132
@<TRIPOS>BOND
     1    1    2 ar 
     2    2    3 ar 
     3    2    4 1  
     4    4    5 1  
     5    5    6 1  
     6    6    7 1  
     7    6   36 1  
     8    7    8 am 
     9    8    9 2  
    10    8   10 1  
    11   10   11 ar 
    12   10   15 ar 
    13   11   12 ar 
    14   12   13 ar 
    15   13   14 ar 
    16   13   16 1  
    17   14   15 ar 
    18   16   17 1  
    19   16   29 1  
    20   17   18 1  
    21   18   19 1  
    22   19   20 1  
    23   20   21 1  
    24   20   27 2  
    25   21   22 2  
    26   21   23 am 
    27   23   24 am 
    28   24   25 1  
    29   24   26 2  
    30   26   27 1  
    31   27   28 1  
    32   29   30 1  
    33   29   31 1  
    34   29   32 1  
    35   32   33 1  
    36   32   34 1  
    37   32   35 1  
    38   36   37 ar 
    39   36   38 ar 
    40    4   39 1  
    41    4   40 1  
    42    5   41 1  
    43    5   42 1  
    44    6   43 1  
    45    7   44 1  
    46   11   45 1  
    47   12   46 1  
    48   14   47 1  
    49   15   48 1  
    50   16   49 1  
    51   17   50 1  
    52   17   51 1  
    53   18   52 1  
    54   18   53 1  
    55   19   54 1  
    56   19   55 1  
    57   23   56 1  
    58   25   57 1  
    59   25   58 1  
    60   28   59 1  
    61   28   60 1  
    62   30   61 1  
    63   31   62 1  
@<TRIPOS>SUBSTRUCTURE
     1 KEU         1

