### 
### Created by X-TOOL on Mon Sep 10 21:12:50 2018
### 

@<TRIPOS>MOLECULE
1njt_ligand
   73    72     1     0     0
SMALL
GAST_HUCK


@<TRIPOS>ATOM
      1 C          50.9190   71.9880   19.1320 C.2       1 ACE         0.1751
      2 O          51.5140   70.9900   19.5470 O.2       1 ACE        -0.3972
      3 CH3        51.2530   73.3940   19.6890 C.3       1 ACE         0.0258
      4 N          49.9740   71.9280   18.2000 N.am      1 VAL        -0.2656
      5 CA         49.5760   70.6600   17.6020 C.3       1 VAL         0.1332
      6 C          49.3470   70.7950   16.1000 C.2       1 VAL         0.2041
      7 O          48.8880   71.8320   15.6190 O.2       1 VAL        -0.3944
      8 CB         48.2860   70.1280   18.2570 C.3       1 VAL        -0.0063
      9 CG1        47.8600   68.8310   17.5970 C.3       1 VAL        -0.0584
     10 CG2        48.5250   69.9020   19.7440 C.3       1 VAL        -0.0584
     11 N          49.6870   69.7470   15.3600 N.am      1 DMK        -0.2636
     12 CA         49.4880   69.7500   13.9170 C.3       1 DMK         0.1406
     13 CB         50.8290   69.5930   13.1890 C.3       1 DMK         0.0504
     14 CG1        51.5620   70.9630   13.1760 C.2       1 DMK         0.0549
     15 CG2        51.7110   68.5430   13.9140 C.3       1 DMK        -0.0510
     16 CG3        50.5890   69.1480   11.7230 C.3       1 DMK        -0.0510
     17 OD1        51.7770   71.6180   12.1520 O.co2     1 DMK        -0.5473
     18 OD2        51.9500   71.5770   14.1750 O.co2     1 DMK        -0.5473
     19 C          48.5240   68.6220   13.5510 C.2       1 DMK         0.2039
     20 O          48.7010   67.4660   13.9620 O.2       1 DMK        -0.3945
     21 N          47.4910   68.9780   12.7960 N.am      1 DMH        -0.2617
     22 CA         46.4850   68.0170   12.3750 C.3       1 DMH         0.1474
     23 CB         45.0890   68.5620   12.6740 C.3       1 DMH         0.0777
     24 CG         44.8400   68.7470   14.1680 C.2       1 DMH         0.1825
     25 OD1        45.5280   68.1480   14.9980 O.2       1 DMH        -0.3967
     26 ND2        43.8460   69.5710   14.5150 N.am      1 DMH        -0.2791
     27 CE1        43.0640   70.2920   13.5420 C.3       1 DMH         0.0222
     28 CE2        43.4970   69.7540   15.9020 C.3       1 DMH         0.0222
     29 C          46.6060   67.7000   10.8890 C.2       1 DMH         0.2043
     30 O          46.6000   68.6050   10.0520 O.2       1 DMH        -0.3944
     31 N          46.7160   66.4120   10.5650 N.am      1 ALA        -0.2799
     32 CA         46.8340   65.9830    9.1730 C.3       1 ALA         0.0623
     33 C          45.5320   65.3090    8.6740 C.3       1 ALA         0.0669
     34 O          45.8470   64.4900    7.5970 O.3       1 ALA        -0.3928
     35 CB         47.9920   65.0300    9.0210 C.3       1 ALA        -0.0398
     36 H1         50.6185   74.1444   19.1947 H         1 ACE         0.0467
     37 H2         52.3111   73.6235   19.4949 H         1 ACE         0.0467
     38 H3         51.0665   73.4128   20.7729 H         1 ACE         0.0467
     39 H4         49.5262   72.7711   17.9024 H         1 VAL         0.1883
     40 H5         50.3837   69.9323   17.7695 H         1 VAL         0.0802
     41 H6         47.4862   70.8725   18.1307 H         1 VAL         0.0343
     42 H7         46.9394   68.4625   18.0731 H         1 VAL         0.0234
     43 H8         48.6573   68.0820   17.7118 H         1 VAL         0.0234
     44 H9         47.6741   69.0077   16.5273 H         1 VAL         0.0234
     45 H10        48.8334   70.8477   20.2137 H         1 VAL         0.0234
     46 H11        49.3172   69.1507   19.8781 H         1 VAL         0.0234
     47 H12        47.5971   69.5445   20.2144 H         1 VAL         0.0234
     48 H13        50.0861   68.9426   15.8000 H         1 DMK         0.1883
     49 H14        49.0403   70.7098   13.6198 H         1 DMK         0.0797
     50 H15        52.6688   68.4394   13.3831 H         1 DMK         0.0229
     51 H16        51.1917   67.5734   13.9260 H         1 DMK         0.0229
     52 H17        51.8980   68.8716   14.9470 H         1 DMK         0.0229
     53 H18        49.9634   69.8941   11.2111 H         1 DMK         0.0229
     54 H19        50.0786   68.1736   11.7144 H         1 DMK         0.0229
     55 H20        51.5547   69.0607   11.2035 H         1 DMK         0.0229
     56 H21        47.4030   69.9321   12.5097 H         1 DMH         0.1885
     57 H22        46.6319   67.0868   12.9435 H         1 DMH         0.0826
     58 H23        44.3431   67.8577   12.2769 H         1 DMH         0.0551
     59 H24        44.9763   69.5356   12.1747 H         1 DMH         0.0551
     60 H25        42.3091   70.9031   14.0584 H         1 DMH         0.0486
     61 H26        42.5622   69.5777   12.8727 H         1 DMH         0.0486
     62 H27        43.7239   70.9455   12.9525 H         1 DMH         0.0486
     63 H28        44.1679   69.1510   16.5315 H         1 DMH         0.0486
     64 H29        42.4570   69.4344   16.0637 H         1 DMH         0.0486
     65 H30        43.5999   70.8161   16.1690 H         1 DMH         0.0486
     66 H31        46.7178   65.7238   11.2905 H         1 ALA         0.1855
     67 H32        47.0249   66.8709    8.5524 H         1 ALA         0.0576
     68 H33        44.8129   66.0788    8.3574 H         1 ALA         0.0580
     69 H34        45.0921   64.7067    9.4825 H         1 ALA         0.0580
     70 H35        46.4699   63.8288    7.8750 H         1 ALA         0.2095
     71 H36        48.0713   64.7140    7.9704 H         1 ALA         0.0253
     72 H37        47.8272   64.1482    9.6577 H         1 ALA         0.0253
     73 H38        48.9225   65.5323    9.3239 H         1 ALA         0.0253
@<TRIPOS>BOND
     1    1    2 2  
     2    1    3 1  
     3    1    4 am 
     4    4    5 1  
     5    5    6 1  
     6    5    8 1  
     7    6    7 2  
     8    6   11 am 
     9    8    9 1  
    10    8   10 1  
    11   11   12 1  
    12   12   13 1  
    13   12   19 1  
    14   13   14 1  
    15   13   15 1  
    16   13   16 1  
    17   14   17 ar 
    18   14   18 ar 
    19   19   20 2  
    20   19   21 am 
    21   21   22 1  
    22   22   23 1  
    23   22   29 1  
    24   23   24 1  
    25   24   25 2  
    26   24   26 am 
    27   26   27 1  
    28   26   28 1  
    29   29   30 2  
    30   29   31 am 
    31   31   32 1  
    32   32   33 1  
    33   32   35 1  
    34   33   34 1  
    35    3   36 1  
    36    3   37 1  
    37    3   38 1  
    38    4   39 1  
    39    5   40 1  
    40    8   41 1  
    41    9   42 1  
    42    9   43 1  
    43    9   44 1  
    44   10   45 1  
    45   10   46 1  
    46   10   47 1  
    47   11   48 1  
    48   12   49 1  
    49   15   50 1  
    50   15   51 1  
    51   15   52 1  
    52   16   53 1  
    53   16   54 1  
    54   16   55 1  
    55   21   56 1  
    56   22   57 1  
    57   23   58 1  
    58   23   59 1  
    59   27   60 1  
    60   27   61 1  
    61   27   62 1  
    62   28   63 1  
    63   28   64 1  
    64   28   65 1  
    65   31   66 1  
    66   32   67 1  
    67   33   68 1  
    68   33   69 1  
    69   34   70 1  
    70   35   71 1  
    71   35   72 1  
    72   35   73 1  
@<TRIPOS>SUBSTRUCTURE
     1 ACE         1

