### 
### Created by X-TOOL on Mon Sep 10 21:12:50 2018
### 

@<TRIPOS>MOLECULE
1nju_ligand
  115   115     1     0     0
SMALL
GAST_HUCK


@<TRIPOS>ATOM
      1 CA          1.2370   73.4000  -19.1380 C.3       1 0FP         0.0374
      2 C           1.6510   72.0560  -18.5520 C.2       1 0FP         0.1782
      3 O           0.9670   71.0460  -18.7510 O.2       1 0FP        -0.3969
      4 CB          1.1250   74.4870  -18.0710 C.3       1 0FP        -0.0359
      5 CG          0.4540   75.7490  -18.6370 C.3       1 0FP        -0.0462
      6 CD          0.8570   75.9540  -20.1050 C.3       1 0FP        -0.0125
      7 CE          0.0440   77.0340  -20.8000 C.3       1 0FP        -0.0354
      8 NZ          0.4510   77.1570  -22.2410 N.4       1 0FP         0.2185
      9 N           2.7690   72.0350  -17.8360 N.am      1 0FP        -0.2651
     10 CA          3.2580   70.7930  -17.2520 C.3       1 0FP         0.1357
     11 CB          4.6110   70.3770  -17.9060 C.3       1 0FP         0.0026
     12 CG1         5.5850   71.5450  -17.8740 C.3       1 0FP        -0.0558
     13 CG2         5.2120   69.1930  -17.1490 C.3       1 0FP        -0.0558
     14 CG3         4.3760   69.9760  -19.3560 C.3       1 0FP        -0.0558
     15 C           3.4220   70.8860  -15.7380 C.2       1 0FP         0.2044
     16 O           3.8260   71.9220  -15.2120 O.2       1 0FP        -0.3944
     17 N           3.0960   69.7990  -15.0410 N.am      1 0FP        -0.2632
     18 CA          3.2200   69.7550  -13.5860 C.3       1 0FP         0.1358
     19 CB          1.8620   69.5130  -12.9130 C.3       1 0FP         0.0026
     20 CG1         1.3570   68.1280  -13.2520 C.3       1 0FP        -0.0558
     21 CG2         2.0110   69.6510  -11.4170 C.3       1 0FP        -0.0558
     22 CG3         0.8700   70.5340  -13.3960 C.3       1 0FP        -0.0558
     23 C           4.1760   68.6450  -13.1680 C.2       1 0FP         0.2045
     24 O           3.9930   67.4810  -13.5270 O.2       1 0FP        -0.3944
     25 N           5.2000   69.0120  -12.4070 N.am      1 0FP        -0.2616
     26 CA          6.1940   68.0530  -11.9460 C.3       1 0FP         0.1475
     27 CB          7.6000   68.5530  -12.2880 C.3       1 0FP         0.0777
     28 CG          7.8160   68.6890  -13.7810 C.2       1 0FP         0.1825
     29 OD1         7.0190   68.1770  -14.5760 O.2       1 0FP        -0.3967
     30 ND2         8.9060   69.3670  -14.1780 N.am      1 0FP        -0.2791
     31 CE1         9.8790   69.9720  -13.3120 C.3       1 0FP         0.0222
     32 CE2         9.1790   69.5370  -15.5620 C.3       1 0FP         0.0222
     33 C           6.1100   67.7820  -10.4500 C.2       1 0FP         0.2045
     34 O           6.0010   68.7070   -9.6420 O.2       1 0FP        -0.3943
     35 N           6.1640   66.5010  -10.0890 N.am      1 0FP        -0.2773
     36 CA          6.1170   66.0860   -8.6910 C.3       1 0FP         0.0822
     37 C           7.4160   65.3310   -8.3070 C.3       1 0FP         0.1661
     38 O           7.1330   64.5170   -7.2120 O.3       1 0FP        -0.3691
     39 CB          4.9120   65.1930   -8.4650 C.3       1 0FP        -0.0374
     40 C1          8.5720   66.3300   -7.9560 C.2       1 0FP         0.2093
     41 O1          8.8610   67.2680   -8.7220 O.2       1 0FP        -0.3940
     42 N2          9.2300   66.1200   -6.8090 N.am      1 0FP        -0.2704
     43 C3         10.3340   66.9550   -6.3150 C.3       1 0FP         0.0753
     44 C31        11.5550   66.1040   -5.9210 C.3       1 0FP        -0.0228
     45 C32        12.4800   66.8450   -4.9460 C.3       1 0FP        -0.0614
     46 C4          9.8920   67.7530   -5.1100 C.ar      1 0FP        -0.0180
     47 C5          9.8860   69.1390   -5.1450 C.ar      1 0FP        -0.0581
     48 C6          9.5000   69.8830   -4.0270 C.ar      1 0FP        -0.0685
     49 C7          9.1140   69.2340   -2.8600 C.ar      1 0FP        -0.0687
     50 C8          9.1150   67.8530   -2.8130 C.ar      1 0FP        -0.0685
     51 C9          9.5020   67.1180   -3.9350 C.ar      1 0FP        -0.0581
     52 H1          0.2601   73.2855  -19.6304 H         1 0FP         0.0502
     53 H2          1.9878   73.7088  -19.8802 H         1 0FP         0.0502
     54 H3          2.1328   74.7452  -17.7136 H         1 0FP         0.0290
     55 H4          0.5246   74.1064  -17.2316 H         1 0FP         0.0290
     56 H5          0.7699   76.6230  -18.0485 H         1 0FP         0.0269
     57 H6         -0.6386   75.6391  -18.5726 H         1 0FP         0.0269
     58 H7          0.7127   75.0058  -20.6436 H         1 0FP         0.0317
     59 H8          1.9191   76.2378  -20.1404 H         1 0FP         0.0317
     60 H9          0.2125   77.9957  -20.2934 H         1 0FP         0.0813
     61 H10        -1.0234   76.7736  -20.7468 H         1 0FP         0.0813
     62 H11        -0.0978   77.8766  -22.6849 H         1 0FP         0.1994
     63 H12         0.2956   76.2785  -22.7102 H         1 0FP         0.1994
     64 H13         1.4282   77.3984  -22.2947 H         1 0FP         0.1994
     65 H14         3.2817   72.8821  -17.6959 H         1 0FP         0.1883
     66 H15         2.5169   70.0082  -17.4639 H         1 0FP         0.0805
     67 H16         6.5358   71.2423  -18.3371 H         1 0FP         0.0237
     68 H17         5.7643   71.8445  -16.8309 H         1 0FP         0.0237
     69 H18         5.1594   72.3927  -18.4309 H         1 0FP         0.0237
     70 H19         4.5082   68.3479  -17.1717 H         1 0FP         0.0237
     71 H20         5.4024   69.4836  -16.1053 H         1 0FP         0.0237
     72 H21         6.1578   68.8953  -17.6252 H         1 0FP         0.0237
     73 H22         3.9433   70.8249  -19.9057 H         1 0FP         0.0237
     74 H23         3.6820   69.1234  -19.3928 H         1 0FP         0.0237
     75 H24         5.3329   69.6901  -19.8171 H         1 0FP         0.0237
     76 H25         2.7578   68.9925  -15.5259 H         1 0FP         0.1884
     77 H26         3.6192   70.7203  -13.2413 H         1 0FP         0.0805
     78 H27         0.3841   67.9633  -12.7659 H         1 0FP         0.0237
     79 H28         2.0772   67.3774  -12.8944 H         1 0FP         0.0237
     80 H29         1.2424   68.0361  -14.3421 H         1 0FP         0.0237
     81 H30         2.3783   70.6596  -11.1766 H         1 0FP         0.0237
     82 H31         2.7281   68.9024  -11.0493 H         1 0FP         0.0237
     83 H32         1.0351   69.4917  -10.9350 H         1 0FP         0.0237
     84 H33         0.7523   70.4438  -14.4860 H         1 0FP         0.0237
     85 H34         1.2321   71.5428  -13.1486 H         1 0FP         0.0237
     86 H35        -0.1003   70.3625  -12.9070 H         1 0FP         0.0237
     87 H36         5.2911   69.9723  -12.1434 H         1 0FP         0.1885
     88 H37         6.0194   67.1043  -12.4747 H         1 0FP         0.0826
     89 H38         8.3358   67.8399  -11.8880 H         1 0FP         0.0551
     90 H39         7.7495   69.5364  -11.8183 H         1 0FP         0.0551
     91 H40        10.6583   70.4568  -13.9183 H         1 0FP         0.0486
     92 H41        10.3363   69.1986  -12.6774 H         1 0FP         0.0486
     93 H42         9.3876   70.7240  -12.6771 H         1 0FP         0.0486
     94 H43         8.3916   69.0474  -16.1539 H         1 0FP         0.0486
     95 H44        10.1527   69.0849  -15.8019 H         1 0FP         0.0486
     96 H45         9.2040   70.6103  -15.8017 H         1 0FP         0.0486
     97 H46         6.2392   65.8010  -10.7992 H         1 0FP         0.1857
     98 H47         6.0246   66.9797   -8.0564 H         1 0FP         0.0605
     99 H48         7.7345   64.7058   -9.1541 H         1 0FP         0.0861
    100 H49         6.4507   63.8989   -7.4462 H         1 0FP         0.2134
    101 H50         4.8790   64.8817   -7.4105 H         1 0FP         0.0254
    102 H51         4.9890   64.3036   -9.1076 H         1 0FP         0.0254
    103 H52         3.9941   65.7461   -8.7129 H         1 0FP         0.0254
    104 H53         8.9506   65.3400   -6.2490 H         1 0FP         0.1882
    105 H54        10.6299   67.6492   -7.1153 H         1 0FP         0.0719
    106 H55        12.1227   65.8549   -6.8296 H         1 0FP         0.0307
    107 H56        11.2034   65.1779   -5.4429 H         1 0FP         0.0307
    108 H57        13.3359   66.2022   -4.6924 H         1 0FP         0.0232
    109 H58        11.9239   67.0934   -4.0300 H         1 0FP         0.0232
    110 H59        12.8433   67.7704   -5.4168 H         1 0FP         0.0232
    111 H60        10.1848   69.6523   -6.0518 H         1 0FP         0.0557
    112 H61         9.5016   70.9662   -4.0698 H         1 0FP         0.0599
    113 H62         8.8137   69.8084   -1.9911 H         1 0FP         0.0559
    114 H63         8.8156   67.3408   -1.9058 H         1 0FP         0.0599
    115 H64         9.4986   66.0349   -3.8901 H         1 0FP         0.0557
@<TRIPOS>BOND
     1    1    2 1  
     2    1    4 1  
     3    2    3 2  
     4    2    9 am 
     5    4    5 1  
     6    5    6 1  
     7    6    7 1  
     8    7    8 1  
     9    9   10 1  
    10   10   11 1  
    11   10   15 1  
    12   11   12 1  
    13   11   13 1  
    14   11   14 1  
    15   15   16 2  
    16   15   17 am 
    17   17   18 1  
    18   18   19 1  
    19   18   23 1  
    20   19   20 1  
    21   19   21 1  
    22   19   22 1  
    23   23   24 2  
    24   23   25 am 
    25   25   26 1  
    26   26   27 1  
    27   26   33 1  
    28   27   28 1  
    29   28   29 2  
    30   28   30 am 
    31   30   31 1  
    32   30   32 1  
    33   33   34 2  
    34   33   35 am 
    35   35   36 1  
    36   36   37 1  
    37   36   39 1  
    38   37   38 1  
    39   37   40 1  
    40   40   41 2  
    41   40   42 am 
    42   42   43 1  
    43   43   44 1  
    44   43   46 1  
    45   44   45 1  
    46   46   47 ar 
    47   46   51 ar 
    48   47   48 ar 
    49   48   49 ar 
    50   49   50 ar 
    51   50   51 ar 
    52    1   52 1  
    53    1   53 1  
    54    4   54 1  
    55    4   55 1  
    56    5   56 1  
    57    5   57 1  
    58    6   58 1  
    59    6   59 1  
    60    7   60 1  
    61    7   61 1  
    62    8   62 1  
    63    8   63 1  
    64    8   64 1  
    65    9   65 1  
    66   10   66 1  
    67   12   67 1  
    68   12   68 1  
    69   12   69 1  
    70   13   70 1  
    71   13   71 1  
    72   13   72 1  
    73   14   73 1  
    74   14   74 1  
    75   14   75 1  
    76   17   76 1  
    77   18   77 1  
    78   20   78 1  
    79   20   79 1  
    80   20   80 1  
    81   21   81 1  
    82   21   82 1  
    83   21   83 1  
    84   22   84 1  
    85   22   85 1  
    86   22   86 1  
    87   25   87 1  
    88   26   88 1  
    89   27   89 1  
    90   27   90 1  
    91   31   91 1  
    92   31   92 1  
    93   31   93 1  
    94   32   94 1  
    95   32   95 1  
    96   32   96 1  
    97   35   97 1  
    98   36   98 1  
    99   37   99 1  
   100   38  100 1  
   101   39  101 1  
   102   39  102 1  
   103   39  103 1  
   104   42  104 1  
   105   43  105 1  
   106   44  106 1  
   107   44  107 1  
   108   45  108 1  
   109   45  109 1  
   110   45  110 1  
   111   47  111 1  
   112   48  112 1  
   113   49  113 1  
   114   50  114 1  
   115   51  115 1  
@<TRIPOS>SUBSTRUCTURE
     1 0FP         1

