### 
### Created by X-TOOL on Mon Sep 10 21:12:50 2018
### 

@<TRIPOS>MOLECULE
1nkm_ligand
  115   115     1     0     0
SMALL
GAST_HUCK


@<TRIPOS>ATOM
      1 CA         64.8230    5.5390   33.1510 C.3       1 0FP         0.0374
      2 C          64.0580    5.2070   31.8720 C.2       1 0FP         0.1782
      3 O          64.6360    5.1070   30.7830 O.2       1 0FP        -0.3969
      4 CB         63.9980    5.1450   34.3880 C.3       1 0FP        -0.0359
      5 CG         64.7130    5.4330   35.7160 C.3       1 0FP        -0.0462
      6 CD         63.9690    4.8890   36.9300 C.3       1 0FP        -0.0125
      7 CE         64.8550    4.9550   38.1730 C.3       1 0FP        -0.0354
      8 NZ         66.1580    4.2420   37.9760 N.4       1 0FP         0.2185
      9 N          62.7520    5.0340   32.0150 N.am      1 0FP        -0.2651
     10 CA         61.9040    4.7180   30.8790 C.3       1 0FP         0.1357
     11 CB         61.4610    3.2270   30.8970 C.3       1 0FP         0.0026
     12 CG1        60.4490    2.9930   32.0260 C.3       1 0FP        -0.0558
     13 CG2        60.8300    2.8640   29.5480 C.3       1 0FP        -0.0558
     14 CG3        62.6790    2.3380   31.1440 C.3       1 0FP        -0.0558
     15 C          60.6690    5.5960   30.9390 C.2       1 0FP         0.2044
     16 O          60.2490    6.0170   32.0200 O.2       1 0FP        -0.3944
     17 N          60.0980    5.8790   29.7750 N.am      1 0FP        -0.2632
     18 CA         58.8940    6.6990   29.7040 C.3       1 0FP         0.1358
     19 CB         59.2280    8.1720   29.2760 C.3       1 0FP         0.0026
     20 CG1        60.1060    8.1660   28.0130 C.3       1 0FP        -0.0558
     21 CG2        57.9310    8.9380   28.9930 C.3       1 0FP        -0.0558
     22 CG3        59.9670    8.8790   30.4130 C.3       1 0FP        -0.0558
     23 C          57.8760    6.0730   28.7430 C.2       1 0FP         0.2045
     24 O          58.2030    5.7360   27.5980 O.2       1 0FP        -0.3944
     25 N          56.6490    5.9080   29.2300 N.am      1 0FP        -0.2616
     26 CA         55.5820    5.3220   28.4320 C.3       1 0FP         0.1475
     27 CB         54.9760    4.1060   29.1410 C.3       1 0FP         0.0777
     28 CG         55.9550    2.9570   29.3030 C.2       1 0FP         0.1825
     29 OD1        56.9390    2.8410   28.5620 O.2       1 0FP        -0.3967
     30 ND2        55.6690    2.0740   30.2660 N.am      1 0FP        -0.2791
     31 CE1        54.5050    2.1910   31.1220 C.3       1 0FP         0.0222
     32 CE2        56.5360    0.9310   30.4580 C.3       1 0FP         0.0222
     33 C          54.4480    6.2960   28.1270 C.2       1 0FP         0.2045
     34 O          53.8580    6.8880   29.0310 O.2       1 0FP        -0.3943
     35 N          54.1410    6.4470   26.8440 N.am      1 0FP        -0.2773
     36 CA         53.0490    7.3140   26.4100 C.3       1 0FP         0.0822
     37 C          51.9510    6.4650   25.8000 C.3       1 0FP         0.1661
     38 O          51.1620    7.2770   25.0060 O.3       1 0FP        -0.3691
     39 CB         53.5430    8.3070   25.3760 C.3       1 0FP        -0.0374
     40 C1         51.1160    5.8180   26.9300 C.2       1 0FP         0.2093
     41 O1         51.6630    5.4090   27.9640 O.2       1 0FP        -0.3940
     42 N2         49.8010    5.7320   26.7420 N.am      1 0FP        -0.2704
     43 C3         48.8760    5.1400   27.7160 C.3       1 0FP         0.0753
     44 C31        47.8410    4.2320   27.0490 C.3       1 0FP        -0.0228
     45 C32        47.0540    3.4500   28.1000 C.3       1 0FP        -0.0614
     46 C4         48.1400    6.2090   28.4860 C.ar      1 0FP        -0.0180
     47 C5         48.5200    6.5280   29.7930 C.ar      1 0FP        -0.0581
     48 C6         47.8100    7.4790   30.5430 C.ar      1 0FP        -0.0685
     49 C7         46.7090    8.1200   29.9780 C.ar      1 0FP        -0.0687
     50 C8         46.3220    7.8100   28.6680 C.ar      1 0FP        -0.0685
     51 C9         47.0390    6.8600   27.9320 C.ar      1 0FP        -0.0581
     52 H1         65.0272    6.6195   33.1809 H         1 0FP         0.0502
     53 H2         65.7737    4.9858   33.1585 H         1 0FP         0.0502
     54 H3         63.7827    4.0676   34.3347 H         1 0FP         0.0290
     55 H4         63.0537    5.7089   34.3712 H         1 0FP         0.0290
     56 H5         64.8157    6.5224   35.8285 H         1 0FP         0.0269
     57 H6         65.7112    4.9721   35.6826 H         1 0FP         0.0269
     58 H7         63.6857    3.8428   36.7424 H         1 0FP         0.0317
     59 H8         63.0631    5.4896   37.0987 H         1 0FP         0.0317
     60 H9         64.3204    4.4903   39.0146 H         1 0FP         0.0813
     61 H10        65.0601    6.0102   38.4066 H         1 0FP         0.0813
     62 H11        66.7090    4.3104   38.8173 H         1 0FP         0.1994
     63 H12        66.6598    4.6643   37.2106 H         1 0FP         0.1994
     64 H13        65.9819    3.2716   37.7677 H         1 0FP         0.1994
     65 H14        62.3423    5.1228   32.9229 H         1 0FP         0.1883
     66 H15        62.4564    4.9185   29.9492 H         1 0FP         0.0805
     67 H16        60.1422    1.9366   32.0303 H         1 0FP         0.0237
     68 H17        59.5669    3.6303   31.8657 H         1 0FP         0.0237
     69 H18        60.9122    3.2442   32.9916 H         1 0FP         0.0237
     70 H19        61.5609    3.0342   28.7437 H         1 0FP         0.0237
     71 H20        59.9436    3.4924   29.3769 H         1 0FP         0.0237
     72 H21        60.5328    1.8049   29.5553 H         1 0FP         0.0237
     73 H22        63.1324    2.5979   32.1119 H         1 0FP         0.0237
     74 H23        63.4148    2.4928   30.3411 H         1 0FP         0.0237
     75 H24        62.3667    1.2834   31.1569 H         1 0FP         0.0237
     76 H25        60.5005    5.5236   28.9314 H         1 0FP         0.1884
     77 H26        58.4441    6.7307   30.7073 H         1 0FP         0.0805
     78 H27        60.3349    9.2015   27.7207 H         1 0FP         0.0237
     79 H28        59.5682    7.6644   27.1950 H         1 0FP         0.0237
     80 H29        61.0428    7.6280   28.2202 H         1 0FP         0.0237
     81 H30        57.3032    8.9423   29.8962 H         1 0FP         0.0237
     82 H31        57.3878    8.4484   28.1713 H         1 0FP         0.0237
     83 H32        58.1711    9.9731   28.7085 H         1 0FP         0.0237
     84 H33        60.9025    8.3431   30.6313 H         1 0FP         0.0237
     85 H34        59.3326    8.8902   31.3116 H         1 0FP         0.0237
     86 H35        60.1975    9.9122   30.1140 H         1 0FP         0.0237
     87 H36        56.4548    6.1939   30.1684 H         1 0FP         0.1885
     88 H37        56.0203    4.9938   27.4780 H         1 0FP         0.0826
     89 H38        54.1160    3.7519   28.5537 H         1 0FP         0.0551
     90 H39        54.6350    4.4177   30.1393 H         1 0FP         0.0551
     91 H40        54.4857    1.3506   31.8315 H         1 0FP         0.0486
     92 H41        53.5937    2.1720   30.5063 H         1 0FP         0.0486
     93 H42        54.5524    3.1391   31.6778 H         1 0FP         0.0486
     94 H43        57.3695    0.9787   29.7418 H         1 0FP         0.0486
     95 H44        55.9644    0.0056   30.2943 H         1 0FP         0.0486
     96 H45        56.9331    0.9401   31.4838 H         1 0FP         0.0486
     97 H46        54.6724    5.9532   26.1557 H         1 0FP         0.1857
     98 H47        52.6519    7.8605   27.2781 H         1 0FP         0.0605
     99 H48        52.3966    5.6722   25.1812 H         1 0FP         0.0861
    100 H49        51.6950    7.6618   24.3203 H         1 0FP         0.2134
    101 H50        52.7099    8.9519   25.0596 H         1 0FP         0.0254
    102 H51        53.9373    7.7635   24.5047 H         1 0FP         0.0254
    103 H52        54.3401    8.9260   25.8135 H         1 0FP         0.0254
    104 H53        49.4219    6.0909   25.8891 H         1 0FP         0.1882
    105 H54        49.4661    4.5380   28.4227 H         1 0FP         0.0719
    106 H55        48.3566    3.5244   26.3831 H         1 0FP         0.0307
    107 H56        47.1450    4.8483   26.4609 H         1 0FP         0.0307
    108 H57        46.3165    2.8045   27.6006 H         1 0FP         0.0232
    109 H58        46.5337    4.1533   28.7668 H         1 0FP         0.0232
    110 H59        47.7452    2.8294   28.6890 H         1 0FP         0.0232
    111 H60        49.3772    6.0328   30.2347 H         1 0FP         0.0557
    112 H61        48.1165    7.7134   31.5560 H         1 0FP         0.0599
    113 H62        46.1546    8.8553   30.5499 H         1 0FP         0.0559
    114 H63        45.4666    8.3063   28.2241 H         1 0FP         0.0599
    115 H64        46.7343    6.6274   26.9180 H         1 0FP         0.0557
@<TRIPOS>BOND
     1    1    2 1  
     2    1    4 1  
     3    2    3 2  
     4    2    9 am 
     5    4    5 1  
     6    5    6 1  
     7    6    7 1  
     8    7    8 1  
     9    9   10 1  
    10   10   11 1  
    11   10   15 1  
    12   11   12 1  
    13   11   13 1  
    14   11   14 1  
    15   15   16 2  
    16   15   17 am 
    17   17   18 1  
    18   18   19 1  
    19   18   23 1  
    20   19   20 1  
    21   19   21 1  
    22   19   22 1  
    23   23   24 2  
    24   23   25 am 
    25   25   26 1  
    26   26   27 1  
    27   26   33 1  
    28   27   28 1  
    29   28   29 2  
    30   28   30 am 
    31   30   31 1  
    32   30   32 1  
    33   33   34 2  
    34   33   35 am 
    35   35   36 1  
    36   36   37 1  
    37   36   39 1  
    38   37   38 1  
    39   37   40 1  
    40   40   41 2  
    41   40   42 am 
    42   42   43 1  
    43   43   44 1  
    44   43   46 1  
    45   44   45 1  
    46   46   47 ar 
    47   46   51 ar 
    48   47   48 ar 
    49   48   49 ar 
    50   49   50 ar 
    51   50   51 ar 
    52    1   52 1  
    53    1   53 1  
    54    4   54 1  
    55    4   55 1  
    56    5   56 1  
    57    5   57 1  
    58    6   58 1  
    59    6   59 1  
    60    7   60 1  
    61    7   61 1  
    62    8   62 1  
    63    8   63 1  
    64    8   64 1  
    65    9   65 1  
    66   10   66 1  
    67   12   67 1  
    68   12   68 1  
    69   12   69 1  
    70   13   70 1  
    71   13   71 1  
    72   13   72 1  
    73   14   73 1  
    74   14   74 1  
    75   14   75 1  
    76   17   76 1  
    77   18   77 1  
    78   20   78 1  
    79   20   79 1  
    80   20   80 1  
    81   21   81 1  
    82   21   82 1  
    83   21   83 1  
    84   22   84 1  
    85   22   85 1  
    86   22   86 1  
    87   25   87 1  
    88   26   88 1  
    89   27   89 1  
    90   27   90 1  
    91   31   91 1  
    92   31   92 1  
    93   31   93 1  
    94   32   94 1  
    95   32   95 1  
    96   32   96 1  
    97   35   97 1  
    98   36   98 1  
    99   37   99 1  
   100   38  100 1  
   101   39  101 1  
   102   39  102 1  
   103   39  103 1  
   104   42  104 1  
   105   43  105 1  
   106   44  106 1  
   107   44  107 1  
   108   45  108 1  
   109   45  109 1  
   110   45  110 1  
   111   47  111 1  
   112   48  112 1  
   113   49  113 1  
   114   50  114 1  
   115   51  115 1  
@<TRIPOS>SUBSTRUCTURE
     1 0FP         1

