### 
### Created by X-TOOL on Mon Sep 10 21:12:50 2018
### 

@<TRIPOS>MOLECULE
1nl4_ligand
   58    62     1     0     0
SMALL
GAST_HUCK


@<TRIPOS>ATOM
      1 C8         49.6320   49.5050   -2.5050 C.3       1 FTL         0.0665
      2 N2         49.6550   48.2880   -1.6520 N.pl3     1 FTL        -0.2790
      3 C40        50.6980   48.0230   -0.7740 C.ar      1 FTL         0.0545
      4 C43        50.7690   46.8010   -0.0580 C.ar      1 FTL        -0.0318
      5 C44        51.8680   46.5220    0.7790 C.ar      1 FTL        -0.0381
      6 C45        52.9020   47.4740    0.9090 C.ar      1 FTL         0.0871
      7 C46        52.8510   48.6900    0.2130 C.ar      1 FTL         0.0044
      8 C47        51.7450   48.9560   -0.6250 C.ar      1 FTL        -0.0256
      9 C51        53.9080   49.7510    0.3000 C.ar      1 FTL        -0.0061
     10 C52        53.6170   51.0630    0.7680 C.ar      1 FTL        -0.0086
     11 C53        54.6710   52.0690    0.7680 C.ar      1 FTL        -0.0157
     12 C54        55.9610   51.7330    0.3140 C.ar      1 FTL        -0.0521
     13 C55        56.2320   50.4260   -0.1370 C.ar      1 FTL        -0.0584
     14 C56        55.2170   49.4480   -0.1430 C.ar      1 FTL        -0.0509
     15 C65        53.9970   47.1620    1.8020 C.1       1 FTL         0.0841
     16 C7         54.4000   53.3770    1.2200 C.ar      1 FTL        -0.0533
     17 N1         54.8760   46.9230    2.5210 N.1       1 FTL        -0.3419
     18 C2         52.3300   51.4260    1.2380 C.ar      1 FTL        -0.0529
     19 C3         53.1060   53.7050    1.6770 C.ar      1 FTL        -0.0607
     20 C4         52.0800   52.7370    1.6900 C.ar      1 FTL        -0.0608
     21 N3         49.6990   45.4880   -4.9580 N.2       1 FTL        -0.3435
     22 C10        49.9990   46.3810   -3.9610 C.2       1 FTL        -0.0256
     23 C12        48.8240   46.4160   -3.1570 C.2       1 FTL         0.0762
     24 N4         47.9120   45.5770   -3.6790 N.pl3     1 FTL        -0.2493
     25 C5         48.4210   44.9850   -4.7990 C.2       1 FTL         0.0898
     26 C15        46.5750   45.3170   -3.1280 C.3       1 FTL         0.0471
     27 C16        48.6750   51.2110   -0.7770 C.ar      1 FTL        -0.0497
     28 C11        49.2750   50.9120   -2.0210 C.ar      1 FTL        -0.0100
     29 C13        49.5560   51.9580   -2.9250 C.ar      1 FTL        -0.0238
     30 C14        49.2330   53.2860   -2.5910 C.ar      1 FTL         0.0890
     31 C17        48.6380   53.5750   -1.3490 C.ar      1 FTL        -0.0339
     32 C6         48.3540   52.5430   -0.4330 C.ar      1 FTL        -0.0572
     33 C9         49.4860   54.3490   -3.5290 C.1       1 FTL         0.0987
     34 N5         49.6810   55.2040   -4.2890 N.1       1 FTL        -0.3283
     35 C18        48.6080   47.2770   -1.9090 C.3       1 FTL         0.0858
     36 H1         48.9184   49.2833   -3.3123 H         1 FTL         0.0685
     37 H2         50.6456   49.5880   -2.9241 H         1 FTL         0.0685
     38 H3         49.9703   46.0746   -0.1554 H         1 FTL         0.0546
     39 H4         51.9188   45.5834    1.3189 H         1 FTL         0.0687
     40 H5         51.7003   49.8955   -1.1639 H         1 FTL         0.0544
     41 H6         56.7461   52.4805    0.3115 H         1 FTL         0.0641
     42 H7         57.2276   50.1709   -0.4816 H         1 FTL         0.0623
     43 H8         55.4431   48.4472   -0.4928 H         1 FTL         0.0643
     44 H9         55.1824   54.1272    1.2164 H         1 FTL         0.0627
     45 H10        51.5335   50.6908    1.2498 H         1 FTL         0.0624
     46 H11        52.8981   54.7115    2.0217 H         1 FTL         0.0619
     47 H12        51.0928   53.0034    2.0500 H         1 FTL         0.0622
     48 H13        50.9245   46.9365   -3.8171 H         1 FTL         0.0325
     49 H14        47.9201   44.2607   -5.4396 H         1 FTL         0.1150
     50 H15        46.4257   45.9269   -2.2248 H         1 FTL         0.0583
     51 H16        46.4856   44.2515   -2.8698 H         1 FTL         0.0583
     52 H17        45.8127   45.5780   -3.8768 H         1 FTL         0.0583
     53 H18        48.4588   50.4099   -0.0794 H         1 FTL         0.0629
     54 H19        50.0217   51.7381   -3.8788 H         1 FTL         0.0656
     55 H20        48.3961   54.6006   -1.0948 H         1 FTL         0.0661
     56 H21        47.8953   52.7680    0.5230 H         1 FTL         0.0623
     57 H22        47.6479   47.8023   -2.0202 H         1 FTL         0.0701
     58 H23        48.5608   46.6072   -1.0377 H         1 FTL         0.0701
@<TRIPOS>BOND
     1    2    1 1  
     2    1   28 1  
     3    2    3 1  
     4   35    2 1  
     5    3    4 ar 
     6    3    8 ar 
     7    4    5 ar 
     8    5    6 ar 
     9    7    6 ar 
    10    6   15 1  
    11    8    7 ar 
    12    7    9 1  
    13    9   10 ar 
    14    9   14 ar 
    15   10   11 ar 
    16   10   18 ar 
    17   11   12 ar 
    18   11   16 ar 
    19   13   12 ar 
    20   14   13 ar 
    21   15   17 3  
    22   16   19 ar 
    23   18   20 ar 
    24   20   19 ar 
    25   22   21 1  
    26   21   25 2  
    27   23   22 2  
    28   23   24 1  
    29   23   35 1  
    30   24   25 1  
    31   24   26 1  
    32   28   27 ar 
    33   27   32 ar 
    34   28   29 ar 
    35   29   30 ar 
    36   30   31 ar 
    37   30   33 1  
    38   31   32 ar 
    39   33   34 3  
    40    1   36 1  
    41    1   37 1  
    42    4   38 1  
    43    5   39 1  
    44    8   40 1  
    45   12   41 1  
    46   13   42 1  
    47   14   43 1  
    48   16   44 1  
    49   18   45 1  
    50   19   46 1  
    51   20   47 1  
    52   22   48 1  
    53   25   49 1  
    54   26   50 1  
    55   26   51 1  
    56   26   52 1  
    57   27   53 1  
    58   29   54 1  
    59   31   55 1  
    60   32   56 1  
    61   35   57 1  
    62   35   58 1  
@<TRIPOS>SUBSTRUCTURE
     1 FTL         1

