### 
### Created by X-TOOL on Mon Sep 10 21:12:50 2018
### 

@<TRIPOS>MOLECULE
1nl6_ligand
  102   107     1     0     0
SMALL
GAST_HUCK


@<TRIPOS>ATOM
      1 C1        -34.8840   -6.8940   45.1010 C.3       1 750         0.0878
      2 O2        -34.9840   -5.4270   44.9470 O.3       1 750        -0.3693
      3 C3        -33.7550   -4.6880   45.3420 C.3       1 750         0.0878
      4 C4        -32.4850   -5.2020   44.5510 C.3       1 750        -0.0077
      5 N5        -32.3750   -6.7300   44.6590 N.4       1 750         0.2404
      6 C6        -33.6520   -7.4960   44.3250 C.3       1 750        -0.0077
      7 C7        -31.1870   -7.3180   43.8990 C.3       1 750        -0.0036
      8 C8        -30.2360   -6.3250   43.1620 C.3       1 750         0.1079
      9 O9        -29.1970   -7.1520   42.5120 O.3       1 750        -0.3197
     10 C10       -28.0880   -6.7770   41.7100 C.ar      1 750         0.0783
     11 C11       -27.8690   -7.2830   40.3840 C.ar      1 750        -0.0409
     12 C12       -26.7030   -6.8720   39.6650 C.ar      1 750        -0.0107
     13 C13       -25.7570   -5.9590   40.2680 C.ar      1 750         0.1190
     14 C14       -25.9830   -5.4470   41.5940 C.ar      1 750        -0.0337
     15 C15       -27.1460   -5.8620   42.3070 C.ar      1 750        -0.0400
     16 C16       -26.2700   -7.2040   38.3910 C.2       1 750        -0.0261
     17 C17       -25.0590   -6.5080   38.1830 C.2       1 750         0.1886
     18 O18       -24.7630   -5.7600   39.3420 O.3       1 750        -0.2472
     19 C19       -24.1840   -6.4860   36.9400 C.2       1 750         0.2397
     20 O20       -23.1730   -5.7890   36.9640 O.2       1 750        -0.3827
     21 N21       -24.5450   -7.1830   35.8190 N.am      1 750        -0.2630
     22 C22       -23.7620   -7.1030   34.5350 C.3       1 750         0.1305
     23 C23       -24.3310   -8.0400   33.4310 C.3       1 750        -0.0101
     24 C24       -24.6000   -9.5450   33.6630 C.3       1 750        -0.0425
     25 C25       -25.4430  -10.0680   32.4740 C.3       1 750        -0.0625
     26 C26       -23.3000  -10.3830   33.7270 C.3       1 750        -0.0625
     27 C27       -23.8570   -5.6040   34.0830 C.2       1 750         0.2019
     28 O28       -24.9230   -4.9600   34.2740 O.2       1 750        -0.3945
     29 N29       -22.8010   -5.0050   33.4960 N.am      1 750        -0.2794
     30 C30       -22.8930   -3.5840   33.0570 C.3       1 750         0.0699
     31 O32       -22.9530   -2.1110   31.1690 O.3       1 750        -0.3875
     32 C33       -21.5060   -3.9990   30.8810 C.3       1 750         0.0621
     33 N34       -20.2980   -3.1520   31.1940 N.am      1 750        -0.2691
     34 C35       -19.5170   -3.4410   32.4410 C.3       1 750         0.0342
     35 C36       -20.2910   -3.3830   33.7880 C.3       1 750        -0.0303
     36 C37       -21.7470   -2.7800   33.7870 C.3       1 750        -0.0256
     37 C38       -19.9550   -2.1120   30.3570 C.2       1 750         0.1901
     38 O39       -20.4100   -2.1130   29.1950 O.2       1 750        -0.3939
     39 C40       -19.0580   -0.8850   30.7340 C.3       1 750         0.0708
     40 C41       -19.0260    0.2880   29.7100 C.ar      1 750        -0.0220
     41 C42       -19.7890    1.4680   29.9450 C.ar      1 750        -0.0561
     42 C43       -19.7760    2.5470   29.0140 C.ar      1 750        -0.0655
     43 C44       -18.9860    2.4570   27.8240 C.ar      1 750        -0.0573
     44 C45       -18.1750    1.2790   27.5270 C.ar      1 750        -0.0068
     45 C46       -18.2390    0.2020   28.5260 C.ar      1 750        -0.0472
     46 C47       -17.3530    1.1830   26.3280 C.ar      1 750         0.0509
     47 C48       -16.3570    0.1060   26.1360 C.ar      1 750        -0.0271
     48 C49       -15.5820    0.0620   24.9430 C.ar      1 750        -0.0422
     49 C50       -15.7800    1.0740   23.9370 C.ar      1 750        -0.0345
     50 C51       -16.7520    2.1020   24.1650 C.ar      1 750         0.0100
     51 N52       -17.4730    2.1140   25.3120 N.ar      1 750        -0.2919
     52 C31       -22.8260   -3.4760   31.5300 C.3       1 750         0.0982
     53 H1        -35.8049   -7.3537   44.7130 H         1 750         0.0613
     54 H2        -34.7782   -7.1308   46.1700 H         1 750         0.0613
     55 H3        -33.5850   -4.8287   46.4196 H         1 750         0.0613
     56 H4        -33.8984   -3.6182   45.1300 H         1 750         0.0613
     57 H5        -31.5811   -4.7418   44.9766 H         1 750         0.0837
     58 H6        -32.5771   -4.9184   43.4922 H         1 750         0.0837
     59 H7        -32.1962   -6.9107   45.6344 H         1 750         0.2036
     60 H8        -33.8397   -7.4299   43.2432 H         1 750         0.0837
     61 H9        -33.5255   -8.5505   44.6115 H         1 750         0.0837
     62 H10       -31.5893   -8.0095   43.1440 H         1 750         0.0841
     63 H11       -30.5786   -7.8795   44.6233 H         1 750         0.0841
     64 H12       -29.7762   -5.6322   43.8821 H         1 750         0.0664
     65 H13       -30.7943   -5.7520   42.4071 H         1 750         0.0664
     66 H14       -28.5785   -7.9678   39.9337 H         1 750         0.0464
     67 H15       -25.2794   -4.7560   42.0440 H         1 750         0.0551
     68 H16       -27.3241   -5.4860   43.3080 H         1 750         0.0513
     69 H17       -26.7665   -7.8711   37.6879 H         1 750         0.0448
     70 H18       -25.3569   -7.7657   35.8536 H         1 750         0.1874
     71 H19       -22.7131   -7.3757   34.7229 H         1 750         0.0799
     72 H20       -23.6229   -7.9843   32.5911 H         1 750         0.0315
     73 H21       -25.2940   -7.6028   33.1285 H         1 750         0.0315
     74 H22       -25.1557   -9.6702   34.6040 H         1 750         0.0298
     75 H23       -25.6493  -11.1394   32.6140 H         1 750         0.0232
     76 H24       -24.8859   -9.9214   31.5369 H         1 750         0.0232
     77 H25       -26.3926   -9.5149   32.4264 H         1 750         0.0232
     78 H26       -22.6791  -10.0330   34.5648 H         1 750         0.0232
     79 H27       -22.7432  -10.2686   32.7852 H         1 750         0.0232
     80 H28       -23.5539  -11.4428   33.8765 H         1 750         0.0232
     81 H29       -21.9532   -5.5162   33.3548 H         1 750         0.1855
     82 H30       -23.8621   -3.1755   33.3793 H         1 750         0.0582
     83 H31       -23.7860   -1.7781   31.4817 H         1 750         0.2100
     84 H32       -21.3193   -5.0190   31.2481 H         1 750         0.0549
     85 H33       -21.6410   -4.0211   29.7896 H         1 750         0.0549
     86 H34       -18.6983   -2.7085   32.4970 H         1 750         0.0522
     87 H35       -19.0975   -4.4531   32.3427 H         1 750         0.0522
     88 H36       -19.6892   -2.7800   34.4839 H         1 750         0.0285
     89 H37       -20.3655   -4.4135   34.1656 H         1 750         0.0285
     90 H38       -22.0508   -2.6625   34.8376 H         1 750         0.0289
     91 H39       -21.6888   -1.7909   33.3093 H         1 750         0.0289
     92 H40       -18.0275   -1.2491   30.8585 H         1 750         0.0659
     93 H41       -19.4235   -0.4843   31.6910 H         1 750         0.0659
     94 H42       -20.3881    1.5463   30.8450 H         1 750         0.0576
     95 H43       -20.3648    3.4364   29.2073 H         1 750         0.0606
     96 H44       -18.9896    3.2851   27.1245 H         1 750         0.0585
     97 H45       -17.6608   -0.6986   28.3535 H         1 750         0.0580
     98 H46       -16.2178   -0.6480   26.9023 H         1 750         0.0715
     99 H47       -14.8509   -0.7242   24.7930 H         1 750         0.0735
    100 H48       -15.2017    1.0581   23.0203 H         1 750         0.0705
    101 H49       -16.9107    2.8716   23.4183 H         1 750         0.0826
    102 H50       -23.6666   -4.0491   31.1118 H         1 750         0.0636
@<TRIPOS>BOND
     1    1    2 1  
     2    6    1 1  
     3    3    2 1  
     4    4    3 1  
     5    5    4 1  
     6    5    6 1  
     7    7    5 1  
     8    8    7 1  
     9    9    8 1  
    10   10    9 1  
    11   11   10 ar 
    12   15   10 ar 
    13   12   11 ar 
    14   13   12 ar 
    15   16   12 1  
    16   13   14 ar 
    17   18   13 1  
    18   14   15 ar 
    19   17   16 2  
    20   17   18 1  
    21   19   17 1  
    22   19   20 2  
    23   21   19 am 
    24   22   21 1  
    25   22   23 1  
    26   27   22 1  
    27   23   24 1  
    28   24   25 1  
    29   24   26 1  
    30   27   28 2  
    31   29   27 am 
    32   30   29 1  
    33   30   36 1  
    34   52   30 1  
    35   52   31 1  
    36   32   33 1  
    37   32   52 1  
    38   33   34 1  
    39   33   37 am 
    40   34   35 1  
    41   35   36 1  
    42   37   38 2  
    43   37   39 1  
    44   39   40 1  
    45   40   41 ar 
    46   40   45 ar 
    47   41   42 ar 
    48   42   43 ar 
    49   43   44 ar 
    50   44   45 ar 
    51   44   46 1  
    52   46   47 ar 
    53   46   51 ar 
    54   47   48 ar 
    55   48   49 ar 
    56   49   50 ar 
    57   50   51 ar 
    58    1   53 1  
    59    1   54 1  
    60    3   55 1  
    61    3   56 1  
    62    4   57 1  
    63    4   58 1  
    64    5   59 1  
    65    6   60 1  
    66    6   61 1  
    67    7   62 1  
    68    7   63 1  
    69    8   64 1  
    70    8   65 1  
    71   11   66 1  
    72   14   67 1  
    73   15   68 1  
    74   16   69 1  
    75   21   70 1  
    76   22   71 1  
    77   23   72 1  
    78   23   73 1  
    79   24   74 1  
    80   25   75 1  
    81   25   76 1  
    82   25   77 1  
    83   26   78 1  
    84   26   79 1  
    85   26   80 1  
    86   29   81 1  
    87   30   82 1  
    88   31   83 1  
    89   32   84 1  
    90   32   85 1  
    91   34   86 1  
    92   34   87 1  
    93   35   88 1  
    94   35   89 1  
    95   36   90 1  
    96   36   91 1  
    97   39   92 1  
    98   39   93 1  
    99   41   94 1  
   100   42   95 1  
   101   43   96 1  
   102   45   97 1  
   103   47   98 1  
   104   48   99 1  
   105   49  100 1  
   106   50  101 1  
   107   52  102 1  
@<TRIPOS>SUBSTRUCTURE
     1 750         1

