### 
### Created by X-TOOL on Mon Sep 10 21:12:50 2018
### 

@<TRIPOS>MOLECULE
1nl9_ligand
   68    70     1     0     0
SMALL
GAST_HUCK


@<TRIPOS>ATOM
      1 O22        36.6580   29.5000   24.0190 O.co2     1 989        -0.5452
      2 C21        35.6080   28.7400   24.4130 C.2       1 989         0.1562
      3 O23        34.7470   29.1720   25.1210 O.co2     1 989        -0.5452
      4 C18        35.5430   27.2770   23.8800 C.2       1 989         0.2999
      5 O20        35.8780   26.4060   24.6770 O.2       1 989        -0.3408
      6 N17        35.1250   26.9770   22.5520 N.am      1 989        -0.1595
      7 C19        35.0770   25.6090   22.0500 C.ar      1 989         0.1085
      8 C28        33.8320   25.1790   21.4580 C.ar      1 989        -0.0309
      9 C27        33.6470   23.8880   20.9270 C.ar      1 989        -0.0705
     10 C26        34.6920   22.9580   20.9560 C.ar      1 989        -0.0717
     11 C25        35.9260   23.3190   21.5200 C.ar      1 989        -0.0589
     12 C24        36.1640   24.6160   22.0720 C.ar      1 989         0.0366
     13 C33        37.5320   24.8230   22.6270 C.2       1 989         0.0563
     14 O34        38.1510   25.8280   22.4800 O.co2     1 989        -0.5650
     15 O35        38.0450   23.7900   23.3310 O.co2     1 989        -0.5650
     16 C10        34.6920   28.0320   21.7050 C.ar      1 989         0.0991
     17 C9         33.3820   28.5810   21.9580 C.ar      1 989        -0.0451
     18 C8         32.8500   29.6210   21.1820 C.ar      1 989        -0.0766
     19 C7         33.5800   30.1890   20.0990 C.ar      1 989        -0.0450
     20 C3         34.9180   29.6720   19.7980 C.ar      1 989        -0.0223
     21 C4         35.4720   28.5890   20.6090 C.ar      1 989         0.0110
     22 C5         36.7870   28.0840   20.3050 C.ar      1 989        -0.0568
     23 C6         37.5460   28.6280   19.2330 C.ar      1 989        -0.0658
     24 C1         37.0150   29.6830   18.4400 C.ar      1 989        -0.0662
     25 C2         35.7220   30.1980   18.7140 C.ar      1 989        -0.0604
     26 C36        32.9120   31.3080   19.3060 C.3       1 989         0.0151
     27 C37        32.3120   30.7900   17.9580 C.3       1 989         0.1385
     28 N41        31.7070   31.9260   17.2520 N.am      1 989        -0.2643
     29 C61        32.2190   32.3740   16.0860 C.2       1 989         0.1752
     30 O66        33.1960   31.9010   15.5140 O.2       1 989        -0.3972
     31 C62        31.4680   33.5610   15.5050 C.3       1 989         0.0258
     32 C40        31.2950   29.6300   18.1280 C.2       1 989         0.2035
     33 O43        31.7310   28.4810   18.1910 O.2       1 989        -0.3944
     34 N44        29.9660   29.9050   18.2080 N.am      1 989        -0.2849
     35 C45        28.8920   28.9250   18.3750 C.3       1 989         0.0310
     36 C46        27.6830   29.5000   19.1330 C.3       1 989        -0.0328
     37 C49        27.9330   29.6020   20.6510 C.3       1 989        -0.0515
     38 C52        26.7150   30.1700   21.4020 C.3       1 989        -0.0558
     39 C55        27.0890   30.8300   22.7320 C.3       1 989        -0.0653
     40 H1         33.0054   25.8793   21.4208 H         1 989         0.0533
     41 H2         32.6917   23.6137   20.4943 H         1 989         0.0602
     42 H3         34.5497   21.9649   20.5455 H         1 989         0.0510
     43 H4         36.7266   22.5884   21.5375 H         1 989         0.0615
     44 H5         32.7912   28.1775   22.7724 H         1 989         0.0452
     45 H6         31.8611   30.0010   21.4116 H         1 989         0.0489
     46 H7         37.2025   27.2795   20.9010 H         1 989         0.0615
     47 H8         38.5341   28.2370   19.0188 H         1 989         0.0581
     48 H9         37.5995   30.0941   17.6249 H         1 989         0.0596
     49 H10        35.3282   31.0003   18.1006 H         1 989         0.0597
     50 H11        33.6600   32.0842   19.0872 H         1 989         0.0450
     51 H12        32.1024   31.7396   19.9129 H         1 989         0.0450
     52 H13        33.1427   30.4071   17.3470 H         1 989         0.0821
     53 H14        30.9027   32.3752   17.6410 H         1 989         0.1884
     54 H15        31.9413   33.8677   14.5606 H         1 989         0.0467
     55 H16        31.4968   34.3979   16.2183 H         1 989         0.0467
     56 H17        30.4225   33.2764   15.3156 H         1 989         0.0467
     57 H18        29.6973   30.8663   18.1471 H         1 989         0.1851
     58 H19        29.2839   28.0643   18.9369 H         1 989         0.0520
     59 H20        28.5595   28.5930   17.3804 H         1 989         0.0520
     60 H21        26.8153   28.8461   18.9614 H         1 989         0.0285
     61 H22        27.4673   30.5055   18.7426 H         1 989         0.0285
     62 H23        28.7959   30.2616   20.8248 H         1 989         0.0266
     63 H24        28.1542   28.5980   21.0422 H         1 989         0.0266
     64 H25        26.0124   29.3480   21.6036 H         1 989         0.0263
     65 H26        26.2274   30.9207   20.7627 H         1 989         0.0263
     66 H27        26.1806   31.2144   23.2188 H         1 989         0.0230
     67 H28        27.7850   31.6612   22.5459 H         1 989         0.0230
     68 H29        27.5700   30.0885   23.3868 H         1 989         0.0230
@<TRIPOS>BOND
     1    1    2 ar 
     2    2    3 ar 
     3    2    4 1  
     4    4    5 2  
     5    4    6 am 
     6    6    7 1  
     7    6   16 1  
     8    7    8 ar 
     9    7   12 ar 
    10    8    9 ar 
    11    9   10 ar 
    12   10   11 ar 
    13   11   12 ar 
    14   12   13 1  
    15   13   14 ar 
    16   13   15 ar 
    17   16   17 ar 
    18   16   21 ar 
    19   17   18 ar 
    20   18   19 ar 
    21   19   20 ar 
    22   19   26 1  
    23   20   21 ar 
    24   20   25 ar 
    25   21   22 ar 
    26   22   23 ar 
    27   23   24 ar 
    28   24   25 ar 
    29   26   27 1  
    30   27   28 1  
    31   27   32 1  
    32   28   29 am 
    33   29   30 2  
    34   29   31 1  
    35   32   33 2  
    36   32   34 am 
    37   34   35 1  
    38   35   36 1  
    39   36   37 1  
    40   37   38 1  
    41   38   39 1  
    42    8   40 1  
    43    9   41 1  
    44   10   42 1  
    45   11   43 1  
    46   17   44 1  
    47   18   45 1  
    48   22   46 1  
    49   23   47 1  
    50   24   48 1  
    51   25   49 1  
    52   26   50 1  
    53   26   51 1  
    54   27   52 1  
    55   28   53 1  
    56   31   54 1  
    57   31   55 1  
    58   31   56 1  
    59   34   57 1  
    60   35   58 1  
    61   35   59 1  
    62   36   60 1  
    63   36   61 1  
    64   37   62 1  
    65   37   63 1  
    66   38   64 1  
    67   38   65 1  
    68   39   66 1  
    69   39   67 1  
    70   39   68 1  
@<TRIPOS>SUBSTRUCTURE
     1 989         1

