### 
### Created by X-TOOL on Mon Sep 10 21:12:49 2018
### 

@<TRIPOS>MOLECULE
1nli_ligand
   15    16     1     0     0
SMALL
GAST_HUCK


@<TRIPOS>ATOM
      1 N9          4.5680   32.5340   -0.2290 N.2       1 ADE        -0.2857
      2 C8          3.2820   32.6900   -0.6910 C.2       1 ADE         0.1112
      3 N7          2.8070   33.9300   -0.6340 N.pl3     1 ADE        -0.2409
      4 C5          3.8740   34.6390   -0.0940 C.ar      1 ADE         0.1543
      5 C6          4.0330   36.0070    0.1700 C.ar      1 ADE         0.1524
      6 N6          2.9950   36.8490   -0.0290 N.pl3     1 ADE        -0.3151
      7 N1          5.2400   36.4250    0.6620 N.ar      1 ADE        -0.2692
      8 C2          6.1810   35.4860    0.8660 C.ar      1 ADE         0.0501
      9 N3          6.1060   34.1520    0.6520 N.ar      1 ADE        -0.2948
     10 C4          4.9520   33.7900    0.1580 C.ar      1 ADE         0.1017
     11 H1          2.6951   31.8573   -1.0759 H         1 ADE         0.1402
     12 H2          1.8804   34.2784   -0.9186 H         1 ADE         0.2376
     13 H3          3.1040   37.8551    0.1626 H         1 ADE         0.1804
     14 H4          2.0948   36.4847   -0.3723 H         1 ADE         0.1804
     15 H5          7.1268   35.8463    1.2541 H         1 ADE         0.0974
@<TRIPOS>BOND
     1    1    2 2  
     2    1   10 1  
     3    2    3 1  
     4    3    4 1  
     5    4    5 ar 
     6    4   10 ar 
     7    5    6 1  
     8    5    7 ar 
     9    7    8 ar 
    10    8    9 ar 
    11    9   10 ar 
    12    2   11 1  
    13    3   12 1  
    14    6   13 1  
    15    6   14 1  
    16    8   15 1  
@<TRIPOS>SUBSTRUCTURE
     1 ADE         1

