### 
### Created by X-TOOL on Mon Sep 10 21:12:51 2018
### 

@<TRIPOS>MOLECULE
1nlj_ligand
   69    72     1     0     0
SMALL
GAST_HUCK


@<TRIPOS>ATOM
      1 S1         29.6300  -32.9150   -2.0180 S.o2      1 2CA         0.0862
      2 O1         28.8170  -33.6090   -2.9910 O.2       1 2CA        -0.1482
      3 O2         29.0090  -32.6540   -0.7440 O.2       1 2CA        -0.1482
      4 O4         34.9610  -38.0910   -2.0460 O.2       1 2CA        -0.3945
      5 O5         37.4430  -36.1140   -0.9680 O.2       1 2CA        -0.3826
      6 O6         39.0130  -38.0210    0.1770 O.3       1 2CA        -0.2416
      7 N2         34.1850  -36.0140   -2.4720 N.am      1 2CA        -0.2795
      8 N3         37.4190  -37.2680   -2.9830 N.am      1 2CA        -0.2629
      9 N4         30.7400  -31.4510   -4.0110 N.ar      1 2CA        -0.2696
     10 C8         35.0620  -36.9930   -2.6440 C.2       1 2CA         0.2019
     11 C9         36.2380  -36.6680   -3.6230 C.3       1 2CA         0.1305
     12 C10        35.9390  -37.3450   -4.9760 C.3       1 2CA        -0.0101
     13 C11        36.5900  -36.8630   -6.3110 C.3       1 2CA        -0.0425
     14 C12        37.3160  -37.9990   -6.9810 C.3       1 2CA        -0.0625
     15 C13        37.6380  -35.8030   -6.0820 C.3       1 2CA        -0.0625
     16 C14        37.8260  -37.0480   -1.6900 C.2       1 2CA         0.2402
     17 C15        38.7850  -38.0400   -1.1800 C.2       1 2CA         0.1914
     18 C16        39.5080  -38.9730   -1.7960 C.2       1 2CA        -0.0221
     19 C17        40.9300  -40.9300   -0.6930 C.ar      1 2CA        -0.0670
     20 C18        41.4380  -41.3500    0.5730 C.ar      1 2CA        -0.0739
     21 C19        41.1420  -40.6110    1.7670 C.ar      1 2CA        -0.0709
     22 C20        40.2580  -39.5040    1.7610 C.ar      1 2CA        -0.0282
     23 C21        39.7940  -39.0820    0.4420 C.ar      1 2CA         0.1284
     24 C22        40.1290  -39.7520   -0.7520 C.ar      1 2CA        -0.0008
     25 C23        30.2360  -31.3390   -2.7460 C.ar      1 2CA         0.1821
     26 C24        30.2220  -30.0900   -2.0310 C.ar      1 2CA        -0.0062
     27 C25        31.0530  -29.0390   -2.5310 C.ar      1 2CA        -0.0398
     28 C26        31.5970  -29.1320   -3.8390 C.ar      1 2CA        -0.0333
     29 C27        31.4270  -30.3470   -4.5490 C.ar      1 2CA         0.0137
     30 C01        32.9650  -36.2610   -1.5070 C.3       1 2CA         0.0695
     31 C02        33.0950  -35.3750   -0.2080 C.3       1 2CA        -0.0260
     32 C03        33.2270  -33.8500   -0.4020 C.3       1 2CA        -0.0337
     33 C04        32.0290  -33.0970   -1.0340 C.3       1 2CA         0.0299
     34 N05        30.9160  -33.8590   -1.6960 N.am      1 2CA        -0.2299
     35 C06        31.3360  -34.6800   -2.8710 C.3       1 2CA         0.0579
     36 O08        30.5640  -36.5960   -1.5880 O.3       1 2CA        -0.3879
     37 C07        31.6630  -36.1070   -2.3500 C.3       1 2CA         0.0950
     38 H1         34.2954  -35.1392   -2.9438 H         1 2CA         0.1855
     39 H2         37.9730  -37.8894   -3.5371 H         1 2CA         0.1874
     40 H3         36.3677  -35.5840   -3.7578 H         1 2CA         0.0799
     41 H4         34.8511  -37.2722   -5.1216 H         1 2CA         0.0315
     42 H5         36.2236  -38.4012   -4.8600 H         1 2CA         0.0315
     43 H6         35.8013  -36.4730   -6.9712 H         1 2CA         0.0298
     44 H7         37.7681  -37.6430   -7.9185 H         1 2CA         0.0232
     45 H8         36.6054  -38.8093   -7.2012 H         1 2CA         0.0232
     46 H9         38.1050  -38.3747   -6.3130 H         1 2CA         0.0232
     47 H10        37.1781  -34.9328   -5.5909 H         1 2CA         0.0232
     48 H11        38.0656  -35.4954   -7.0477 H         1 2CA         0.0232
     49 H12        38.4347  -36.2075   -5.4404 H         1 2CA         0.0232
     50 H13        39.6101  -39.1188   -2.8704 H         1 2CA         0.0460
     51 H14        41.1488  -41.4953   -1.5916 H         1 2CA         0.0568
     52 H15        42.0555  -42.2389    0.6334 H         1 2CA         0.0535
     53 H16        41.6079  -40.9081    2.6996 H         1 2CA         0.0563
     54 H17        39.9476  -39.0050    2.6719 H         1 2CA         0.0568
     55 H18        29.6066  -29.9516   -1.1494 H         1 2CA         0.0733
     56 H19        31.2668  -28.1742   -1.9133 H         1 2CA         0.0740
     57 H20        32.1276  -28.2972   -4.2824 H         1 2CA         0.0713
     58 H21        31.8430  -30.4290   -5.5466 H         1 2CA         0.0828
     59 H22        33.0024  -37.3072   -1.1692 H         1 2CA         0.0582
     60 H23        33.9869  -35.7171    0.3374 H         1 2CA         0.0289
     61 H24        32.1993  -35.5538    0.4050 H         1 2CA         0.0289
     62 H25        34.1013  -33.6754   -1.0463 H         1 2CA         0.0282
     63 H26        33.4073  -33.4073    0.5887 H         1 2CA         0.0282
     64 H27        32.4466  -32.4225   -1.7960 H         1 2CA         0.0478
     65 H28        31.5701  -32.5027   -0.2301 H         1 2CA         0.0478
     66 H29        32.2277  -34.2375   -3.3390 H         1 2CA         0.0504
     67 H30        30.5203  -34.7268   -3.6075 H         1 2CA         0.0504
     68 H31        30.7641  -37.4684   -1.2696 H         1 2CA         0.2099
     69 H32        31.7801  -36.7478   -3.2364 H         1 2CA         0.0632
@<TRIPOS>BOND
     1    1    2 2  
     2    1    3 2  
     3    1   25 1  
     4   34    1 am 
     5   10    4 2  
     6   16    5 2  
     7   17    6 1  
     8    6   23 1  
     9    7   10 am 
    10   30    7 1  
    11   11    8 1  
    12    8   16 am 
    13   25    9 ar 
    14    9   29 ar 
    15   10   11 1  
    16   11   12 1  
    17   12   13 1  
    18   13   14 1  
    19   13   15 1  
    20   16   17 1  
    21   17   18 2  
    22   18   24 1  
    23   19   20 ar 
    24   24   19 ar 
    25   20   21 ar 
    26   22   21 ar 
    27   23   22 ar 
    28   24   23 ar 
    29   25   26 ar 
    30   26   27 ar 
    31   27   28 ar 
    32   29   28 ar 
    33   31   30 1  
    34   30   37 1  
    35   32   31 1  
    36   33   32 1  
    37   33   34 1  
    38   34   35 1  
    39   35   37 1  
    40   37   36 1  
    41    7   38 1  
    42    8   39 1  
    43   11   40 1  
    44   12   41 1  
    45   12   42 1  
    46   13   43 1  
    47   14   44 1  
    48   14   45 1  
    49   14   46 1  
    50   15   47 1  
    51   15   48 1  
    52   15   49 1  
    53   18   50 1  
    54   19   51 1  
    55   20   52 1  
    56   21   53 1  
    57   22   54 1  
    58   26   55 1  
    59   27   56 1  
    60   28   57 1  
    61   29   58 1  
    62   30   59 1  
    63   31   60 1  
    64   31   61 1  
    65   32   62 1  
    66   32   63 1  
    67   33   64 1  
    68   33   65 1  
    69   35   66 1  
    70   35   67 1  
    71   36   68 1  
    72   37   69 1  
@<TRIPOS>SUBSTRUCTURE
     1 2CA         1

