### 
### Created by X-TOOL on Mon Sep 10 21:12:50 2018
### 

@<TRIPOS>MOLECULE
1nm6_ligand
   71    74     1     0     0
SMALL
GAST_HUCK


@<TRIPOS>ATOM
      1 C8         19.7500  -14.6900   25.8430 C.ar      1 L86        -0.0603
      2 C2         19.8720  -16.0970   25.4690 C.ar      1 L86        -0.0406
      3 C10        21.1040  -16.6450   24.8970 C.ar      1 L86        -0.0603
      4 C4         22.2150  -15.7450   24.6160 C.ar      1 L86        -0.0686
      5 C5         22.0730  -14.3280   24.9530 C.ar      1 L86        -0.0687
      6 C6         20.8640  -13.7860   25.5750 C.ar      1 L86        -0.0686
      7 C11        18.6660  -17.0280   25.5720 C.3       1 L86         0.0092
      8 C1         18.1190  -17.3620   24.1480 C.3       1 L86         0.0897
      9 N18        17.4830  -16.1590   23.5540 N.pl3     1 L86        -0.2860
     10 C21        18.1680  -15.4220   22.5500 C.2       1 L86         0.1892
     11 C22        17.6550  -14.1290   22.0720 C.2       1 L86         0.2745
     12 N23        18.4010  -13.4040   21.1440 N.am      1 L86        -0.1835
     13 C24        19.7030  -13.7840   20.6150 C.2       1 L86         0.1556
     14 C25        20.1550  -15.0150   21.1180 C.2       1 L86         0.0024
     15 N3         19.4310  -15.7840   22.0220 N.2       1 L86        -0.3103
     16 O28        16.5820  -13.7110   22.5080 O.2       1 L86        -0.3904
     17 CL2        20.5490  -12.9380   19.4210 Cl        1 L86        -0.0299
     18 C33        17.8220  -12.1540   20.6190 C.3       1 L86         0.1518
     19 C34        16.4000  -12.3880   20.1360 C.2       1 L86         0.2092
     20 N37        15.5600  -11.3670   20.3840 N.am      1 L86        -0.2744
     21 O38        16.1010  -13.4250   19.5430 O.2       1 L86        -0.3938
     22 C39        14.1190  -11.5080   20.0730 C.3       1 L86         0.0622
     23 C40        13.2220  -11.4900   21.3090 C.ar      1 L86        -0.0188
     24 C43        12.3980  -12.6360   21.6430 C.ar      1 L86        -0.0341
     25 C44        11.5260  -12.6240   22.7980 C.ar      1 L86        -0.0666
     26 C45        11.4830  -11.4190   23.6050 C.ar      1 L86        -0.0755
     27 C15        13.1860  -10.2860   22.1300 C.ar      1 L86        -0.0649
     28 C9         12.4100  -13.8930   20.7730 C.3       1 L86         0.0188
     29 C50        12.3020  -10.2670   23.2760 C.ar      1 L86        -0.0754
     30 C3         13.6320  -14.7580   21.1300 C.3       1 L86        -0.0251
     31 C7         17.0410  -18.4520   24.2150 C.3       1 L86        -0.0080
     32 N2         16.6590  -19.0130   22.8870 N.4       1 L86         0.2289
     33 N5         13.6570  -15.9310   20.2380 N.4       1 L86         0.2285
     34 C12        14.9430  -16.6860   20.2790 C.3       1 L86        -0.0286
     35 C13        15.1150  -17.4590   21.6010 C.3       1 L86         0.0275
     36 C14        16.4310  -18.2960   21.6030 C.3       1 L86        -0.0287
     37 H1         18.8448  -14.3227   26.3129 H         1 L86         0.0557
     38 H2         21.1881  -17.7049   24.6857 H         1 L86         0.0557
     39 H3         23.1283  -16.1176   24.1664 H         1 L86         0.0599
     40 H4         22.8938  -13.6547   24.7338 H         1 L86         0.0559
     41 H5         20.7974  -12.7348   25.8313 H         1 L86         0.0599
     42 H6         17.8761  -16.5358   26.1583 H         1 L86         0.0451
     43 H7         18.9679  -17.9596   26.0729 H         1 L86         0.0451
     44 H8         18.9504  -17.7000   23.5119 H         1 L86         0.0636
     45 H9         16.5489  -15.8596   23.8683 H         1 L86         0.1853
     46 H10        21.1223  -15.3862   20.7826 H         1 L86         0.0435
     47 H11        18.4353  -11.7957   19.7790 H         1 L86         0.0868
     48 H12        17.8134  -11.3961   21.4162 H         1 L86         0.0868
     49 H13        15.9074  -10.5156   20.7770 H         1 L86         0.1876
     50 H14        13.9684  -12.4628   19.5480 H         1 L86         0.0668
     51 H15        13.8222  -10.6773   19.4159 H         1 L86         0.0668
     52 H16        10.9236  -13.4886   23.0523 H         1 L86         0.0537
     53 H17        10.8283  -11.3785   24.4680 H         1 L86         0.0541
     54 H18        13.8041   -9.4287   21.8890 H         1 L86         0.0538
     55 H19        12.4636  -13.6038   19.7131 H         1 L86         0.0463
     56 H20        11.4898  -14.4691   20.9498 H         1 L86         0.0463
     57 H21        12.2510   -9.3800   23.8971 H         1 L86         0.0541
     58 H22        13.5577  -15.0900   22.1761 H         1 L86         0.0836
     59 H23        14.5528  -14.1713   20.9959 H         1 L86         0.0836
     60 H24        16.1419  -18.0206   24.6793 H         1 L86         0.0839
     61 H25        17.4189  -19.2736   24.8413 H         1 L86         0.0839
     62 H26        15.7942  -19.5012   23.0595 H         1 L86         0.2014
     63 H27        17.3852  -19.6798   22.6772 H         1 L86         0.2014
     64 H28        13.5026  -15.6160   19.2930 H         1 L86         0.2015
     65 H29        12.9130  -16.5542   20.5103 H         1 L86         0.2015
     66 H30        15.7759  -15.9755   20.1719 H         1 L86         0.0816
     67 H31        14.9618  -17.4017   19.4439 H         1 L86         0.0816
     68 H32        14.2592  -18.1373   21.7331 H         1 L86         0.0369
     69 H33        15.1460  -16.7413   22.4340 H         1 L86         0.0369
     70 H34        16.3769  -19.0371   20.7919 H         1 L86         0.0816
     71 H35        17.2785  -17.6179   21.4243 H         1 L86         0.0816
@<TRIPOS>BOND
     1    1    2 ar 
     2    1    6 ar 
     3    2    3 ar 
     4    2    7 1  
     5    3    4 ar 
     6    4    5 ar 
     7    5    6 ar 
     8    7    8 1  
     9    8    9 1  
    10    8   31 1  
    11    9   10 1  
    12   10   11 1  
    13   10   15 2  
    14   11   12 am 
    15   11   16 2  
    16   12   13 am 
    17   12   18 1  
    18   13   14 2  
    19   13   17 1  
    20   14   15 1  
    21   18   19 1  
    22   19   20 am 
    23   19   21 2  
    24   20   22 1  
    25   22   23 1  
    26   23   24 ar 
    27   23   27 ar 
    28   24   25 ar 
    29   24   28 1  
    30   25   26 ar 
    31   26   29 ar 
    32   27   29 ar 
    33   28   30 1  
    34   30   33 1  
    35   31   32 1  
    36   32   36 1  
    37   33   34 1  
    38   34   35 1  
    39   35   36 1  
    40    1   37 1  
    41    3   38 1  
    42    4   39 1  
    43    5   40 1  
    44    6   41 1  
    45    7   42 1  
    46    7   43 1  
    47    8   44 1  
    48    9   45 1  
    49   14   46 1  
    50   18   47 1  
    51   18   48 1  
    52   20   49 1  
    53   22   50 1  
    54   22   51 1  
    55   25   52 1  
    56   26   53 1  
    57   27   54 1  
    58   28   55 1  
    59   28   56 1  
    60   29   57 1  
    61   30   58 1  
    62   30   59 1  
    63   31   60 1  
    64   31   61 1  
    65   32   62 1  
    66   32   63 1  
    67   33   64 1  
    68   33   65 1  
    69   34   66 1  
    70   34   67 1  
    71   35   68 1  
    72   35   69 1  
    73   36   70 1  
    74   36   71 1  
@<TRIPOS>SUBSTRUCTURE
     1 L86         1

