### 
### Created by X-TOOL on Mon Sep 10 21:12:49 2018
### 

@<TRIPOS>MOLECULE
1nmk_ligand
  110   112     1     0     0
SMALL
GAST_HUCK


@<TRIPOS>ATOM
      1 C54        27.8380    5.6340   32.7020 C.3       1 SFM         0.0094
      2 C53        27.5010    6.4410   33.9600 C.2       1 SFM         0.1021
      3 O71        27.1550    7.5980   33.7390 O.2       1 SFM        -0.3919
      4 C52        27.6110    5.8630   35.3420 C.3       1 SFM         0.0232
      5 C51        28.1550    6.8620   36.3530 C.3       1 SFM        -0.0149
      6 C14        28.1170    6.2850   37.7750 C.3       1 SFM         0.0772
      7 C13        29.0640    5.0850   37.7090 C.2       1 SFM         0.1840
      8 O70        28.5830    3.9800   37.6250 O.2       1 SFM        -0.3965
      9 N12        30.3780    5.2470   37.7380 N.am      1 SFM        -0.2651
     10 C11        31.2170    4.0640   37.7240 C.3       1 SFM         0.1332
     11 C55        32.3310    4.1370   36.6350 C.3       1 SFM        -0.0063
     12 C56        31.7200    3.9290   35.2230 C.3       1 SFM        -0.0584
     13 C57        33.3100    2.9780   36.8280 C.3       1 SFM        -0.0584
     14 C10        31.8460    4.1150   39.1090 C.2       1 SFM         0.2043
     15 N9         31.5600    3.1610   39.9820 N.am      1 SFM        -0.2617
     16 C8         31.9630    3.2470   41.3930 C.3       1 SFM         0.1448
     17 C58        30.7430    2.6800   42.1440 C.3       1 SFM         0.0191
     18 C59        30.8610    2.5490   43.6250 C.ar      1 SFM        -0.0474
     19 C64        30.4170    3.5690   44.4520 C.ar      1 SFM        -0.0712
     20 C63        30.5330    3.4920   45.8270 C.ar      1 SFM        -0.0772
     21 C62        31.0570    2.3450   46.4130 C.ar      1 SFM        -0.0403
     22 C61        31.4660    1.3070   45.5810 C.ar      1 SFM         0.0809
     23 O68        31.9700    0.1660   46.1170 O.3       1 SFM        -0.3349
     24 C60        31.3840    1.4030   44.2120 C.ar      1 SFM        -0.0323
     25 C7         33.2660    2.4810   41.7130 C.2       1 SFM         0.2434
     26 O67        33.4490    1.3730   41.2290 O.2       1 SFM        -0.3893
     27 N6         34.1880    3.0900   42.5230 N.am      1 SFM        -0.2374
     28 C5         35.3090    2.3480   43.1220 C.3       1 SFM         0.0730
     29 C4         35.2830    2.2460   44.6610 C.3       1 SFM        -0.0204
     30 C3         34.9370    3.5910   45.2810 C.3       1 SFM         0.0121
     31 C2         33.7100    4.2440   44.6230 C.3       1 SFM         0.1028
     32 N65        33.8650    4.3080   43.1460 N.4       1 SFM         0.3834
     33 C1         33.5610    5.6340   45.1930 C.2       1 SFM         0.2859
     34 O66        34.0120    6.6090   44.6210 O.2       1 SFM        -0.3639
     35 O65        32.9140    5.6220   46.3470 O.3       1 SFM        -0.2551
     36 C23        32.6740    6.8870   46.9970 C.3       1 SFM         0.1220
     37 C22        31.2590    7.4410   46.6930 C.3       1 SFM         0.0119
     38 C21        31.0630    7.8560   45.2470 C.2       1 SFM        -0.0826
     39 C20        29.9400    7.6140   44.6150 C.2       1 SFM        -0.0902
     40 C19        29.7820    7.9770   43.3570 C.2       1 SFM        -0.0881
     41 C18        28.6440    7.7250   42.7490 C.2       1 SFM        -0.0588
     42 C17        28.5040    8.1460   41.2680 C.3       1 SFM         0.0861
     43 O73        27.4510    9.0860   41.0550 O.3       1 SFM        -0.3786
     44 C16        28.3590    6.9060   40.3600 C.3       1 SFM         0.0205
     45 C50        29.4970    5.9620   40.7650 C.3       1 SFM        -0.0554
     46 C15        28.5660    7.3500   38.8600 C.3       1 SFM         0.0818
     47 O72        29.9420    7.6940   38.6310 O.3       1 SFM        -0.3886
     48 C24        32.8100    6.6060   48.4680 C.2       1 SFM        -0.0467
     49 C49        32.3610    5.2380   48.9290 C.3       1 SFM        -0.0374
     50 C25        33.2320    7.4770   49.3040 C.2       1 SFM        -0.0810
     51 C26        33.2950    7.0770   50.7500 C.3       1 SFM         0.0513
     52 O78        33.8500    8.1390   51.4440 O.3       1 SFM        -0.3902
     53 O69        32.6290    5.0190   39.4130 O.2       1 SFM        -0.3944
     54 H1         28.1365    4.6150   32.9891 H         1 SFM         0.0458
     55 H2         28.6654    6.1207   32.1648 H         1 SFM         0.0458
     56 H3         26.9541    5.5868   32.0489 H         1 SFM         0.0458
     57 H4         28.2848    4.9942   35.3078 H         1 SFM         0.0495
     58 H5         26.6118    5.5396   35.6691 H         1 SFM         0.0495
     59 H6         27.5438    7.7759   36.3197 H         1 SFM         0.0318
     60 H7         29.1952    7.1068   36.0923 H         1 SFM         0.0318
     61 H8         27.0988    5.9481   38.0192 H         1 SFM         0.0565
     62 H9         30.7814    6.1615   37.7688 H         1 SFM         0.1883
     63 H10        30.6183    3.1524   37.5805 H         1 SFM         0.0802
     64 H11        32.8512    5.1043   36.6955 H         1 SFM         0.0343
     65 H12        32.5172    3.9832   34.4670 H         1 SFM         0.0234
     66 H13        30.9746    4.7138   35.0267 H         1 SFM         0.0234
     67 H14        31.2354    2.9427   35.1748 H         1 SFM         0.0234
     68 H15        33.7854    3.0604   37.8165 H         1 SFM         0.0234
     69 H16        34.0822    3.0160   36.0455 H         1 SFM         0.0234
     70 H17        32.7666    2.0240   36.7609 H         1 SFM         0.0234
     71 H18        31.0537    2.3565   39.6714 H         1 SFM         0.1885
     72 H19        32.1154    4.3005   41.6701 H         1 SFM         0.0825
     73 H20        30.5390    1.6785   41.7374 H         1 SFM         0.0472
     74 H21        29.8887    3.3411   41.9363 H         1 SFM         0.0472
     75 H22        29.9671    4.4500   44.0087 H         1 SFM         0.0464
     76 H23        30.2165    4.3232   46.4467 H         1 SFM         0.0572
     77 H24        31.1447    2.2615   47.4902 H         1 SFM         0.0485
     78 H25        32.1992   -0.4361   45.4189 H         1 SFM         0.2479
     79 H26        31.7275    0.5843   43.5901 H         1 SFM         0.0478
     80 H27        36.2434    2.8496   42.8302 H         1 SFM         0.0573
     81 H28        35.2979    1.3268   42.7133 H         1 SFM         0.0573
     82 H29        36.2730    1.9270   45.0189 H         1 SFM         0.0290
     83 H30        34.5280    1.5046   44.9615 H         1 SFM         0.0290
     84 H31        35.7991    4.2646   45.1665 H         1 SFM         0.0347
     85 H32        34.7268    3.4429   46.3505 H         1 SFM         0.0347
     86 H33        32.8132    3.6529   44.8603 H         1 SFM         0.1123
     87 H34        32.9958    4.6367   42.7556 H         1 SFM         0.2307
     88 H35        34.5978    4.9682   42.9381 H         1 SFM         0.2307
     89 H36        33.4250    7.6236   46.6754 H         1 SFM         0.0825
     90 H37        31.0852    8.3189   47.3326 H         1 SFM         0.0487
     91 H38        30.5218    6.6607   46.9330 H         1 SFM         0.0487
     92 H39        31.8710    8.3650   44.7236 H         1 SFM         0.0607
     93 H40        29.1283    7.1073   45.1349 H         1 SFM         0.0402
     94 H41        30.5879    8.4815   42.8261 H         1 SFM         0.0403
     95 H42        27.8247    7.2346   43.2727 H         1 SFM         0.0630
     96 H43        29.4409    8.6487   40.9860 H         1 SFM         0.0771
     97 H44        27.4093    9.3095   40.1326 H         1 SFM         0.2135
     98 H45        27.3776    6.4267   40.4906 H         1 SFM         0.0376
     99 H46        29.4525    5.0499   40.1517 H         1 SFM         0.0236
    100 H47        29.3918    5.6953   41.8270 H         1 SFM         0.0236
    101 H48        30.4632    6.4634   40.6068 H         1 SFM         0.0236
    102 H49        27.9553    8.2515   38.7043 H         1 SFM         0.0627
    103 H50        30.1880    8.4099   39.2050 H         1 SFM         0.2100
    104 H51        32.5077    5.1509   50.0157 H         1 SFM         0.0376
    105 H52        32.9529    4.4656   48.4160 H         1 SFM         0.0376
    106 H53        31.2957    5.1021   48.6908 H         1 SFM         0.0376
    107 H54        33.5343    8.4715   48.9793 H         1 SFM         0.0265
    108 H55        33.9228    6.1813   50.8664 H         1 SFM         0.0632
    109 H56        32.2834    6.8674   51.1276 H         1 SFM         0.0632
    110 H57        33.3040    8.9084   51.3328 H         1 SFM         0.2115
@<TRIPOS>BOND
     1    1    2 1  
     2    2    3 2  
     3    2    4 1  
     4    4    5 1  
     5    5    6 1  
     6    6    7 1  
     7    6   46 1  
     8    7    8 2  
     9    7    9 am 
    10    9   10 1  
    11   10   11 1  
    12   10   14 1  
    13   11   12 1  
    14   11   13 1  
    15   14   15 am 
    16   14   53 2  
    17   15   16 1  
    18   16   17 1  
    19   16   25 1  
    20   17   18 1  
    21   18   19 ar 
    22   18   24 ar 
    23   19   20 ar 
    24   20   21 ar 
    25   21   22 ar 
    26   22   23 1  
    27   22   24 ar 
    28   25   26 2  
    29   25   27 am 
    30   27   28 1  
    31   27   32 1  
    32   28   29 1  
    33   29   30 1  
    34   30   31 1  
    35   31   32 1  
    36   31   33 1  
    37   33   34 2  
    38   33   35 1  
    39   35   36 1  
    40   36   37 1  
    41   36   48 1  
    42   37   38 1  
    43   38   39 2  
    44   39   40 1  
    45   40   41 2  
    46   41   42 1  
    47   42   43 1  
    48   42   44 1  
    49   44   45 1  
    50   44   46 1  
    51   46   47 1  
    52   48   49 1  
    53   48   50 2  
    54   50   51 1  
    55   51   52 1  
    56    1   54 1  
    57    1   55 1  
    58    1   56 1  
    59    4   57 1  
    60    4   58 1  
    61    5   59 1  
    62    5   60 1  
    63    6   61 1  
    64    9   62 1  
    65   10   63 1  
    66   11   64 1  
    67   12   65 1  
    68   12   66 1  
    69   12   67 1  
    70   13   68 1  
    71   13   69 1  
    72   13   70 1  
    73   15   71 1  
    74   16   72 1  
    75   17   73 1  
    76   17   74 1  
    77   19   75 1  
    78   20   76 1  
    79   21   77 1  
    80   23   78 1  
    81   24   79 1  
    82   28   80 1  
    83   28   81 1  
    84   29   82 1  
    85   29   83 1  
    86   30   84 1  
    87   30   85 1  
    88   31   86 1  
    89   32   87 1  
    90   32   88 1  
    91   36   89 1  
    92   37   90 1  
    93   37   91 1  
    94   38   92 1  
    95   39   93 1  
    96   40   94 1  
    97   41   95 1  
    98   42   96 1  
    99   43   97 1  
   100   44   98 1  
   101   45   99 1  
   102   45  100 1  
   103   45  101 1  
   104   46  102 1  
   105   47  103 1  
   106   49  104 1  
   107   49  105 1  
   108   49  106 1  
   109   50  107 1  
   110   51  108 1  
   111   51  109 1  
   112   52  110 1  
@<TRIPOS>SUBSTRUCTURE
     1 SFM         1

