### 
### Created by X-TOOL on Sun Sep  9 21:50:03 2018
### 

@<TRIPOS>MOLECULE
1nms_ligand
   50    51     1     0     0
SMALL
GAST_HUCK


@<TRIPOS>ATOM
      1 C1         15.8990    1.4240   -5.0040 C.3       1 NON         0.0119
      2 C2         16.6210    0.2410   -4.4300 C.2       1 NON         0.1288
      3 O24        15.9540   -0.6790   -3.9490 O.2       1 NON        -0.3893
      4 C3         18.1420    0.1000   -4.5250 C.3       1 NON         0.1253
      5 C25        18.7740   -0.5190   -3.2880 C.3       1 NON         0.0395
      6 C26        20.0070   -1.0820   -3.5270 C.2       1 NON         0.0393
      7 O28        20.3350   -1.3870   -4.6740 O.co2     1 NON        -0.5688
      8 O27        20.8120   -1.2960   -2.6270 O.co2     1 NON        -0.5688
      9 N4         18.8690    1.3220   -4.8220 N.am      1 NON        -0.2655
     10 C5         19.3470    1.5690   -6.0440 C.2       1 NON         0.2023
     11 O29        18.9460    0.9180   -6.9980 O.2       1 NON        -0.3877
     12 C6         20.4110    2.6070   -6.2630 C.ar      1 NON         0.0429
     13 C7         20.8290    3.4620   -5.2400 C.ar      1 NON        -0.0485
     14 C8         21.8280    4.4210   -5.4230 C.ar      1 NON        -0.0529
     15 C11        20.9990    2.6830   -7.5120 C.ar      1 NON        -0.0485
     16 C10        22.0020    3.6300   -7.7050 C.ar      1 NON        -0.0529
     17 C9         22.4410    4.4780   -6.6840 C.ar      1 NON        -0.0199
     18 C12        23.5300    5.5040   -6.9490 C.3       1 NON         0.0622
     19 N13        24.7410    4.7340   -7.1350 N.am      1 NON        -0.2365
     20 S14        26.0720    5.5480   -7.8290 S.o2      1 NON         0.0658
     21 O30        27.2470    4.6980   -7.6270 O.2       1 NON        -0.1515
     22 O31        25.6010    5.9320   -9.1810 O.2       1 NON        -0.1515
     23 C15        26.2950    6.9660   -6.8550 C.ar      1 NON         0.1007
     24 C16        26.7060    6.7690   -5.5440 C.ar      1 NON        -0.0295
     25 C20        26.0520    8.2360   -7.3570 C.ar      1 NON        -0.0413
     26 C19        26.2520    9.3520   -6.5400 C.ar      1 NON        -0.0275
     27 C18        26.6830    9.2130   -5.2230 C.ar      1 NON         0.1030
     28 O23        26.8980   10.1860   -4.4680 O.3       1 NON        -0.3295
     29 C17        26.9010    7.8670   -4.6960 C.ar      1 NON         0.0404
     30 C21        27.3720    7.7080   -3.2900 C.2       1 NON         0.0582
     31 O32        27.5830    6.5640   -2.8590 O.co2     1 NON        -0.5643
     32 O22        27.5860    8.7250   -2.6130 O.co2     1 NON        -0.5643
     33 H1         16.6312    2.1490   -5.3889 H         1 NON         0.0459
     34 H2         15.2908    1.8983   -4.2197 H         1 NON         0.0459
     35 H3         15.2456    1.0922   -5.8243 H         1 NON         0.0459
     36 H4         18.3238   -0.5893   -5.3627 H         1 NON         0.0809
     37 H5         18.1013   -1.3017   -2.9075 H         1 NON         0.0479
     38 H6         18.8910    0.2660   -2.5264 H         1 NON         0.0479
     39 H7         19.0147    1.9931   -4.0951 H         1 NON         0.1876
     40 H8         20.3598    3.3778   -4.2664 H         1 NON         0.0652
     41 H9         22.1178    5.0935   -4.6238 H         1 NON         0.0570
     42 H10        20.6890    2.0258   -8.3164 H         1 NON         0.0652
     43 H11        22.4596    3.7126   -8.6842 H         1 NON         0.0570
     44 H12        23.6344    6.1856   -6.0920 H         1 NON         0.0649
     45 H13        23.3000    6.0854   -7.8540 H         1 NON         0.0649
     46 H14        24.7958    3.7714   -6.8698 H         1 NON         0.1700
     47 H15        26.8764    5.7639   -5.1756 H         1 NON         0.0642
     48 H16        25.7088    8.3622   -8.3775 H         1 NON         0.0630
     49 H17        26.0684   10.3433   -6.9384 H         1 NON         0.0550
     50 H18        27.1828    9.8695   -3.6188 H         1 NON         0.2498
@<TRIPOS>BOND
     1    1    2 1  
     2    2    3 2  
     3    2    4 1  
     4    4    5 1  
     5    4    9 1  
     6    5    6 1  
     7    6    7 ar 
     8    6    8 ar 
     9    9   10 am 
    10   10   11 2  
    11   10   12 1  
    12   12   13 ar 
    13   12   15 ar 
    14   13   14 ar 
    15   14   17 ar 
    16   15   16 ar 
    17   16   17 ar 
    18   17   18 1  
    19   18   19 1  
    20   19   20 am 
    21   20   21 2  
    22   20   22 2  
    23   20   23 1  
    24   23   24 ar 
    25   23   25 ar 
    26   24   29 ar 
    27   25   26 ar 
    28   26   27 ar 
    29   27   28 1  
    30   27   29 ar 
    31   29   30 1  
    32   30   31 ar 
    33   30   32 ar 
    34    1   33 1  
    35    1   34 1  
    36    1   35 1  
    37    4   36 1  
    38    5   37 1  
    39    5   38 1  
    40    9   39 1  
    41   13   40 1  
    42   14   41 1  
    43   15   42 1  
    44   16   43 1  
    45   18   44 1  
    46   18   45 1  
    47   19   46 1  
    48   24   47 1  
    49   25   48 1  
    50   26   49 1  
    51   28   50 1  
@<TRIPOS>SUBSTRUCTURE
     1 NON         1

