### 
### Created by X-TOOL on Mon Sep 10 21:12:45 2018
### 

@<TRIPOS>MOLECULE
1nnb_ligand
   36    36     1     0     0
SMALL
GAST_HUCK


@<TRIPOS>ATOM
      1 C1         24.0190   20.0630   65.6820 C.2       1 DAN         0.0809
      2 C2         24.6550   18.9790   64.8050 C.2       1 DAN         0.1088
      3 C3         24.2020   17.5460   64.5910 C.2       1 DAN        -0.0276
      4 C4         24.7070   16.8560   63.3620 C.3       1 DAN         0.1003
      5 C5         26.2460   17.0260   63.5020 C.3       1 DAN         0.1064
      6 C6         26.6180   18.4840   63.2660 C.3       1 DAN         0.1321
      7 C7         28.0300   18.7620   63.8170 C.3       1 DAN         0.1154
      8 C8         28.3280   20.2690   63.4890 C.3       1 DAN         0.1068
      9 C9         29.8090   20.7070   63.8860 C.3       1 DAN         0.0727
     10 C10        27.4130   14.9770   62.5940 C.2       1 DAN         0.1734
     11 C11        28.0820   14.3340   61.3760 C.3       1 DAN         0.0257
     12 N5         27.0090   16.2420   62.5280 N.am      1 DAN        -0.2770
     13 O1A        24.6110   21.1830   65.6650 O.co2     1 DAN        -0.5623
     14 O1B        22.7940   19.9580   65.9750 O.co2     1 DAN        -0.5623
     15 O4         24.2850   15.5240   63.0100 O.3       1 DAN        -0.3807
     16 O6         25.7110   19.4370   63.9400 O.3       1 DAN        -0.3189
     17 O7         28.1170   18.4490   65.2350 O.3       1 DAN        -0.3861
     18 O8         28.1600   20.2920   62.0880 O.3       1 DAN        -0.3869
     19 O9         30.7360   19.9700   63.0690 O.3       1 DAN        -0.3924
     20 O10        27.4470   14.3400   63.6480 O.2       1 DAN        -0.3974
     21 H1         23.5419   17.0443   65.2970 H         1 DAN         0.0480
     22 H2         24.3791   17.4700   62.5103 H         1 DAN         0.0740
     23 H3         26.5402   16.7235   64.5178 H         1 DAN         0.0632
     24 H4         26.5980   18.6752   62.1829 H         1 DAN         0.0697
     25 H5         28.7588   18.1308   63.2874 H         1 DAN         0.0650
     26 H6         27.6077   20.9315   63.9912 H         1 DAN         0.0643
     27 H7         29.9904   20.4832   64.9476 H         1 DAN         0.0584
     28 H8         29.9366   21.7856   63.7116 H         1 DAN         0.0584
     29 H9         28.3477   13.2927   61.6108 H         1 DAN         0.0467
     30 H10        28.9922   14.8955   61.1185 H         1 DAN         0.0467
     31 H11        27.3868   14.3518   60.5238 H         1 DAN         0.0467
     32 H12        27.2629   16.7288   61.6922 H         1 DAN         0.1858
     33 H13        23.3377   15.5003   62.9436 H         1 DAN         0.2127
     34 H14        27.4870   18.9749   65.7135 H         1 DAN         0.2100
     35 H15        28.3175   21.1716   61.7657 H         1 DAN         0.2100
     36 H16        30.5737   20.1647   62.1534 H         1 DAN         0.2095
@<TRIPOS>BOND
     1    2    1 1  
     2    1   13 ar 
     3    1   14 ar 
     4    3    2 2  
     5   16    2 1  
     6    4    3 1  
     7    3   21 1  
     8    5    4 1  
     9    4   15 1  
    10    4   22 1  
    11    5    6 1  
    12   12    5 1  
    13    5   23 1  
    14    6    7 1  
    15    6   16 1  
    16    6   24 1  
    17    7    8 1  
    18    7   17 1  
    19    7   25 1  
    20    8    9 1  
    21    8   18 1  
    22    8   26 1  
    23    9   19 1  
    24    9   27 1  
    25    9   28 1  
    26   10   11 1  
    27   10   12 am 
    28   10   20 2  
    29   11   29 1  
    30   11   30 1  
    31   11   31 1  
    32   12   32 1  
    33   15   33 1  
    34   17   34 1  
    35   18   35 1  
    36   19   36 1  
@<TRIPOS>SUBSTRUCTURE
     1 DAN         1

