### 
### Created by X-TOOL on Mon Sep 10 21:12:50 2018
### 

@<TRIPOS>MOLECULE
1nnk_ligand
   32    32     1     0     0
SMALL
GAST_HUCK


@<TRIPOS>ATOM
      1 C12        46.7080   12.6030   23.0670 C.3       1 CE2        -0.1016
      2 C7         46.9580   13.8820   22.2800 C.3       1 CE2        -0.0404
      3 C5         48.2890   14.5440   22.5000 C.2       1 CE2         0.1210
      4 C3         48.9800   14.9760   23.5960 C.2       1 CE2         0.1290
      5 C2         50.1910   15.6020   23.0880 C.2       1 CE2         0.2856
      6 O4         51.0840   16.1690   23.8090 O.2       1 CE2        -0.3581
      7 N1         50.2520   15.5050   21.7490 N.am      1 CE2        -0.1238
      8 O8         49.0160   14.8080   21.3580 O.3       1 CE2        -0.1884
      9 C6         48.7770   14.9510   25.0720 C.3       1 CE2         0.0845
     10 C11        49.6540   13.8480   25.7050 C.3       1 CE2         0.0506
     11 C25        49.7480   14.1220   27.2180 C.2       1 CE2         0.0892
     12 O28        50.2260   15.2470   27.5410 O.co2     1 CE2        -0.5640
     13 O27        49.3940   13.2180   28.0080 O.co2     1 CE2        -0.5640
     14 N24        49.1210   12.4700   25.4670 N.4       1 CE2         0.2359
     15 C13        46.7330   13.5740   20.7940 C.3       1 CE2        -0.1016
     16 C14        45.9030   14.9200   22.6680 C.3       1 CE2        -0.1016
     17 H1         45.7084   12.2130   22.8249 H         1 CE2         0.0069
     18 H2         46.7667   12.8179   24.1442 H         1 CE2         0.0069
     19 H3         47.4682   11.8540   22.8005 H         1 CE2         0.0069
     20 H4         50.9800   15.8351   21.1481 H         1 CE2         0.2329
     21 H5         47.7187   14.7460   25.2912 H         1 CE2         0.0707
     22 H6         49.0568   15.9270   25.4952 H         1 CE2         0.0707
     23 H7         50.6605   13.9066   25.2651 H         1 CE2         0.1077
     24 H8         49.7307   11.7944   25.9005 H         1 CE2         0.2014
     25 H9         49.0754   12.2939   24.4756 H         1 CE2         0.2014
     26 H10        48.1979   12.3934   25.8647 H         1 CE2         0.2014
     27 H11        46.9075   14.4836   20.2005 H         1 CE2         0.0069
     28 H12        45.6989   13.2306   20.6432 H         1 CE2         0.0069
     29 H13        47.4313   12.7871   20.4728 H         1 CE2         0.0069
     30 H14        46.0178   15.1799   23.7307 H         1 CE2         0.0069
     31 H15        44.8991   14.5034   22.4988 H         1 CE2         0.0069
     32 H16        46.0336   15.8230   22.0536 H         1 CE2         0.0069
@<TRIPOS>BOND
     1    1    2 1  
     2    2    3 1  
     3    2   15 1  
     4    2   16 1  
     5    3    4 2  
     6    3    8 1  
     7    4    5 1  
     8    4    9 1  
     9    5    6 2  
    10    5    7 am 
    11    7    8 1  
    12    9   10 1  
    13   10   11 1  
    14   10   14 1  
    15   11   12 ar 
    16   11   13 ar 
    17    1   17 1  
    18    1   18 1  
    19    1   19 1  
    20    7   20 1  
    21    9   21 1  
    22    9   22 1  
    23   10   23 1  
    24   14   24 1  
    25   14   25 1  
    26   14   26 1  
    27   15   27 1  
    28   15   28 1  
    29   15   29 1  
    30   16   30 1  
    31   16   31 1  
    32   16   32 1  
@<TRIPOS>SUBSTRUCTURE
     1 CE2         1

