### 
### Created by X-TOOL on Mon Sep 10 21:12:49 2018
### 

@<TRIPOS>MOLECULE
1nnu_ligand
   31    33     1     0     0
SMALL
GAST_HUCK


@<TRIPOS>ATOM
      1 C16        52.7650   89.7600   35.3370 C.ar      1 TCT        -0.0616
      2 C15        51.7250   90.6620   35.6210 C.ar      1 TCT        -0.0275
      3 C14        51.6960   91.9630   35.0530 C.ar      1 TCT         0.1108
      4 C13        52.7410   92.3780   34.1650 C.ar      1 TCT        -0.0292
      5 C12        53.7990   91.4870   33.8570 C.ar      1 TCT        -0.0345
      6 C11        53.8070   90.1330   34.4710 C.ar      1 TCT        -0.0350
      7 C10        54.8590   89.2400   34.1750 C.ar      1 TCT        -0.0335
      8 C9         55.8910   89.6310   33.3040 C.ar      1 TCT         0.0850
      9 O3         56.9020   88.7520   33.0300 O.3       1 TCT        -0.3349
     10 C8         55.8900   90.9240   32.7090 C.ar      1 TCT        -0.0316
     11 C7         54.8540   91.8510   32.9810 C.ar      1 TCT        -0.0619
     12 O2         50.6230   92.7860   35.4250 O.3       1 TCT        -0.2629
     13 C3         50.4140   94.1230   35.0190 C.ar      1 TCT         0.1446
     14 C4         51.0880   95.1700   35.7230 C.ar      1 TCT        -0.0360
     15 C5         50.8850   96.5320   35.3760 C.ar      1 TCT        -0.0669
     16 C6         50.0040   96.8750   34.3260 C.ar      1 TCT         0.0205
     17 CL1        49.7480   98.5680   33.9330 Cl        1 TCT        -0.0833
     18 C1         49.3280   95.8430   33.6060 C.ar      1 TCT        -0.0268
     19 C2         49.5350   94.4640   33.9500 C.ar      1 TCT         0.1217
     20 O1         48.8760   93.4850   33.2600 O.3       1 TCT        -0.3359
     21 H          52.7632   88.7685   35.7897 H         1 TCT         0.0586
     22 H          50.9227   90.3558   36.2924 H         1 TCT         0.0586
     23 H          52.7223   93.3762   33.7276 H         1 TCT         0.0500
     24 H          54.8714   88.2460   34.6222 H         1 TCT         0.0491
     25 H          57.5249   89.1611   32.4248 H         1 TCT         0.2474
     26 H          56.6984   91.2051   32.0340 H         1 TCT         0.0579
     27 H          54.8673   92.8385   32.5198 H         1 TCT         0.0587
     28 H          51.7673   94.9188   36.5376 H         1 TCT         0.0520
     29 H          51.4107   97.3156   35.9216 H         1 TCT         0.0504
     30 H          48.6519   96.1033   32.7916 H         1 TCT         0.0516
     31 H          49.1150   93.5332   32.3315 H         1 TCT         0.2446
@<TRIPOS>BOND
     1    1    2 ar 
     2    1    6 ar 
     3    2    3 ar 
     4    3    4 ar 
     5    3   12 1  
     6    4    5 ar 
     7    5    6 ar 
     8    5   11 ar 
     9    6    7 ar 
    10    7    8 ar 
    11    8    9 1  
    12    8   10 ar 
    13   10   11 ar 
    14   12   13 1  
    15   13   14 ar 
    16   13   19 ar 
    17   14   15 ar 
    18   15   16 ar 
    19   16   17 1  
    20   16   18 ar 
    21   18   19 ar 
    22   19   20 1  
    23    1   21 1  
    24    2   22 1  
    25    4   23 1  
    26    7   24 1  
    27    9   25 1  
    28   10   26 1  
    29   11   27 1  
    30   14   28 1  
    31   15   29 1  
    32   18   30 1  
    33   20   31 1  
@<TRIPOS>SUBSTRUCTURE
     1 TCT         1

