### 
### Created by X-TOOL on Mon Sep 10 21:12:50 2018
### 

@<TRIPOS>MOLECULE
1nny_ligand
   87    91     1     0     0
SMALL
GAST_HUCK


@<TRIPOS>ATOM
      1 C1         35.8290   28.7060   20.6170 C.ar      1 515         0.0110
      2 C2         35.0780   28.1540   21.7250 C.ar      1 515         0.0991
      3 C3         33.7560   28.6920   21.9980 C.ar      1 515        -0.0451
      4 C4         33.1890   29.7160   21.2280 C.ar      1 515        -0.0766
      5 C5         33.8940   30.2790   20.1290 C.ar      1 515        -0.0450
      6 C6         35.2420   29.7730   19.8100 C.ar      1 515        -0.0223
      7 N4         35.5230   27.1150   22.5750 N.am      1 515        -0.1595
      8 C9         32.6040   30.8500   17.9680 C.3       1 515         0.1385
      9 N1         31.9840   31.9720   17.2520 N.am      1 515        -0.2643
     10 C10        32.4630   32.3610   16.0380 C.2       1 515         0.1752
     11 C11        31.6270   29.6600   18.1900 C.2       1 515         0.2035
     12 N2         30.3010   29.9700   18.3220 N.am      1 515        -0.2849
     13 C12        29.2820   28.9250   18.5490 C.3       1 515         0.0310
     14 C13        28.1650   29.2630   19.5950 C.3       1 515        -0.0327
     15 C14        26.7080   30.6830   22.6340 C.3       1 515         0.0715
     16 C15        28.5960   29.4180   21.0680 C.3       1 515        -0.0488
     17 O1         26.0100   29.4170   22.6970 O.3       1 515        -0.3148
     18 O4         33.4110   31.8460   15.4450 O.2       1 515        -0.3972
     19 C23        31.7040   33.5410   15.4330 C.3       1 515         0.0258
     20 C8         35.9230   27.4280   23.9130 C.2       1 515         0.2999
     21 O8         32.0770   28.5200   18.2470 O.2       1 515        -0.3944
     22 C7         33.1950   31.3810   19.3220 C.3       1 515         0.0151
     23 O5         36.2070   26.5760   24.7490 O.2       1 515        -0.3408
     24 C24        36.0340   28.8800   24.4110 C.2       1 515         0.1562
     25 O6         36.9470   29.6070   24.1070 O.co2     1 515        -0.5452
     26 C25        36.4960   24.7230   22.1330 C.ar      1 515         0.0366
     27 C26        35.4460   25.7480   22.0880 C.ar      1 515         0.1085
     28 C27        34.2040   25.3370   21.4860 C.ar      1 515        -0.0309
     29 C28        33.9860   24.0540   20.9710 C.ar      1 515        -0.0705
     30 C29        35.0010   23.0970   21.0220 C.ar      1 515        -0.0717
     31 C30        36.2310   23.4300   21.5940 C.ar      1 515        -0.0589
     32 O9         38.3950   23.9170   23.2220 O.co2     1 515        -0.5650
     33 O10        38.5090   26.0420   22.6250 O.co2     1 515        -0.5650
     34 C31        37.8690   24.8590   22.6960 C.2       1 515         0.0563
     35 C32        24.6760   29.3590   23.2360 C.ar      1 515         0.1060
     36 C33        23.9370   30.5470   23.5910 C.ar      1 515        -0.0267
     37 C34        22.6210   30.4790   24.1220 C.ar      1 515        -0.0270
     38 C35        21.9760   29.1950   24.3210 C.ar      1 515        -0.0207
     39 C36        22.6860   28.0020   23.9780 C.ar      1 515        -0.0411
     40 C37        24.0170   28.0800   23.4460 C.ar      1 515         0.0443
     41 C38        24.6810   26.8240   23.1260 C.2       1 515         0.0617
     42 O11        25.0080   26.0510   24.1660 O.co2     1 515        -0.5629
     43 O12        24.9170   26.5020   22.0000 O.co2     1 515        -0.5629
     44 C16        37.1450   28.2110   20.2980 C.ar      1 515        -0.0568
     45 C17        37.8780   28.7590   19.2030 C.ar      1 515        -0.0658
     46 C18        37.3130   29.7990   18.4120 C.ar      1 515        -0.0662
     47 C19        36.0110   30.3010   18.7100 C.ar      1 515        -0.0604
     48 C20        28.0870   30.6390   21.9180 C.3       1 515        -0.0248
     49 O2         35.0250   29.2820   25.2020 O.co2     1 515        -0.5452
     50 C41        21.9420   31.6940   24.4620 C.ar      1 515        -0.0590
     51 C42        20.6210   31.6380   25.0000 C.ar      1 515        -0.0645
     52 C43        19.9740   30.3790   25.1970 C.ar      1 515        -0.0639
     53 C44        20.6380   29.1550   24.8620 C.ar      1 515        -0.0571
     54 H1         33.1880   28.2864   22.8274 H         1 515         0.0452
     55 H2         32.1994   30.0841   21.4734 H         1 515         0.0489
     56 H3         33.4377   30.4776   17.3546 H         1 515         0.0821
     57 H4         31.2065   32.4526   17.6576 H         1 515         0.1884
     58 H5         30.0150   30.9264   18.2634 H         1 515         0.1851
     59 H6         29.8016   28.0189   18.8940 H         1 515         0.0520
     60 H7         28.7898   28.7215   17.5865 H         1 515         0.0520
     61 H8         27.4183   28.4564   19.5528 H         1 515         0.0285
     62 H9         27.6992   30.2104   19.2860 H         1 515         0.0285
     63 H10        26.0679   31.3990   22.0977 H         1 515         0.0616
     64 H11        26.8693   31.0351   23.6636 H         1 515         0.0616
     65 H12        29.6950   29.4655   21.0728 H         1 515         0.0267
     66 H13        28.2660   28.5086   21.5916 H         1 515         0.0267
     67 H14        32.1438   33.7988   14.4582 H         1 515         0.0467
     68 H15        31.7745   34.4070   16.1076 H         1 515         0.0467
     69 H16        30.6474   33.2667   15.2975 H         1 515         0.0467
     70 H17        33.9248   32.1740   19.1017 H         1 515         0.0450
     71 H18        32.3748   31.7951   19.9268 H         1 515         0.0450
     72 H19        33.3967   26.0582   21.4288 H         1 515         0.0533
     73 H20        33.0273   23.8030   20.5317 H         1 515         0.0602
     74 H21        34.8360   22.1035   20.6210 H         1 515         0.0510
     75 H22        37.0117   22.6788   21.6293 H         1 515         0.0615
     76 H23        24.3986   31.5174   23.4486 H         1 515         0.0499
     77 H24        22.2173   27.0350   24.1203 H         1 515         0.0663
     78 H25        37.5806   27.4172   20.8939 H         1 515         0.0615
     79 H26        38.8680   28.3822   18.9729 H         1 515         0.0581
     80 H27        37.8737   30.2109   17.5807 H         1 515         0.0596
     81 H28        35.5927   31.0928   18.0992 H         1 515         0.0597
     82 H29        28.0970   31.5022   21.2363 H         1 515         0.0291
     83 H30        28.8382   30.7868   22.7078 H         1 515         0.0291
     84 H31        22.4289   32.6507   24.3115 H         1 515         0.0592
     85 H32        20.1058   32.5554   25.2606 H         1 515         0.0614
     86 H33        18.9699   30.3501   25.6044 H         1 515         0.0589
     87 H34        20.1392   28.2046   25.0137 H         1 515         0.0623
@<TRIPOS>BOND
     1    1    2 ar 
     2    6    1 ar 
     3    1   44 ar 
     4    3    2 ar 
     5    2    7 1  
     6    4    3 ar 
     7    5    4 ar 
     8    5    6 ar 
     9   22    5 1  
    10    6   47 ar 
    11    7   20 am 
    12    7   27 1  
    13    8    9 1  
    14   11    8 1  
    15    8   22 1  
    16    9   10 am 
    17   10   18 2  
    18   10   19 1  
    19   12   11 am 
    20   11   21 2  
    21   13   12 1  
    22   14   13 1  
    23   16   14 1  
    24   48   16 1  
    25   20   23 2  
    26   20   24 1  
    27   24   25 ar 
    28   24   49 ar 
    29   27   28 ar 
    30   28   29 ar 
    31   29   30 ar 
    32   31   30 ar 
    33   34   32 ar 
    34   35   36 ar 
    35   35   40 ar 
    36   36   37 ar 
    37   37   38 ar 
    38   39   38 ar 
    39   40   39 ar 
    40   40   41 1  
    41   41   42 ar 
    42   41   43 ar 
    43   44   45 ar 
    44   46   45 ar 
    45   47   46 ar 
    46   50   51 ar 
    47   51   52 ar 
    48   53   52 ar 
    49   38   53 ar 
    50   37   50 ar 
    51   15   48 1  
    52   17   35 1  
    53   34   33 ar 
    54   26   34 1  
    55   26   31 ar 
    56   27   26 ar 
    57   15   17 1  
    58    3   54 1  
    59    4   55 1  
    60    8   56 1  
    61    9   57 1  
    62   12   58 1  
    63   13   59 1  
    64   13   60 1  
    65   14   61 1  
    66   14   62 1  
    67   15   63 1  
    68   15   64 1  
    69   16   65 1  
    70   16   66 1  
    71   19   67 1  
    72   19   68 1  
    73   19   69 1  
    74   22   70 1  
    75   22   71 1  
    76   28   72 1  
    77   29   73 1  
    78   30   74 1  
    79   31   75 1  
    80   36   76 1  
    81   39   77 1  
    82   44   78 1  
    83   45   79 1  
    84   46   80 1  
    85   47   81 1  
    86   48   82 1  
    87   48   83 1  
    88   50   84 1  
    89   51   85 1  
    90   52   86 1  
    91   53   87 1  
@<TRIPOS>SUBSTRUCTURE
     1 515         1

