### 
### Created by X-TOOL on Mon Sep 10 21:12:50 2018
### 

@<TRIPOS>MOLECULE
1no6_ligand
   36    38     1     0     0
SMALL
GAST_HUCK


@<TRIPOS>ATOM
      1 O35        36.0610   29.8300   23.5530 O.co2     1 794        -0.5452
      2 C30        35.0690   29.0480   23.7960 C.2       1 794         0.1568
      3 O36        34.1270   29.4050   24.5360 O.co2     1 794        -0.5452
      4 C19        34.9430   27.6620   23.1430 C.2       1 794         0.3022
      5 O34        34.8680   26.7390   23.9790 O.2       1 794        -0.3396
      6 N18        34.9010   27.4660   21.6720 N.am      1 794        -0.1543
      7 C20        34.7480   26.1330   21.1450 C.ar      1 794         0.1108
      8 C21        33.5110   25.8340   20.4360 C.ar      1 794        -0.0302
      9 C22        33.2550   24.5360   19.8840 C.ar      1 794        -0.0701
     10 C23        34.2080   23.5020   20.0240 C.ar      1 794        -0.0714
     11 C24        35.4290   23.7300   20.7110 C.ar      1 794        -0.0585
     12 C25        35.7520   25.0250   21.2870 C.ar      1 794         0.0374
     13 C31        37.0730   25.1610   21.9860 C.2       1 794         0.0566
     14 O32        37.8340   24.1850   22.0880 O.co2     1 794        -0.5649
     15 O33        37.3770   26.2280   22.4400 O.co2     1 794        -0.5649
     16 C11        34.9980   28.5630   20.7850 C.ar      1 794         0.1074
     17 C12        36.2490   28.7810   20.1090 C.ar      1 794        -0.0368
     18 C13        36.4270   29.8690   19.1930 C.ar      1 794        -0.0786
     19 C14        35.3500   30.7620   18.9380 C.ar      1 794        -0.0724
     20 C2         34.0830   30.5890   19.5900 C.ar      1 794        -0.0294
     21 C1         33.8850   29.4780   20.5300 C.ar      1 794         0.0164
     22 C6         32.5940   29.3260   21.1720 C.ar      1 794        -0.0544
     23 C5         31.5530   30.2510   20.8830 C.ar      1 794        -0.0644
     24 C4         31.7660   31.3360   19.9570 C.ar      1 794        -0.0652
     25 C3         33.0210   31.4940   19.3240 C.ar      1 794        -0.0602
     26 H1         32.7653   26.6126   20.3230 H         1 794         0.0537
     27 H2         32.3267   24.3469   19.3571 H         1 794         0.0604
     28 H3         34.0044   22.5244   19.6023 H         1 794         0.0513
     29 H4         36.1393   22.9170   20.8087 H         1 794         0.0616
     30 H5         37.0766   28.1065   20.2968 H         1 794         0.0469
     31 H6         37.3799   30.0107   18.6960 H         1 794         0.0570
     32 H7         35.4875   31.5827   18.2433 H         1 794         0.0459
     33 H8         32.4232   28.5125   21.8678 H         1 794         0.0627
     34 H9         30.5882   30.1392   21.3644 H         1 794         0.0582
     35 H10        30.9624   32.0321   19.7456 H         1 794         0.0611
     36 H11        33.1736   32.3126   18.6300 H         1 794         0.0590
@<TRIPOS>BOND
     1    1    2 ar 
     2    2    3 ar 
     3    2    4 1  
     4    4    5 2  
     5    4    6 am 
     6    6    7 1  
     7    6   16 1  
     8    7    8 ar 
     9    7   12 ar 
    10    8    9 ar 
    11    9   10 ar 
    12   10   11 ar 
    13   11   12 ar 
    14   12   13 1  
    15   13   14 ar 
    16   13   15 ar 
    17   16   17 ar 
    18   16   21 ar 
    19   17   18 ar 
    20   18   19 ar 
    21   19   20 ar 
    22   20   21 ar 
    23   20   25 ar 
    24   21   22 ar 
    25   22   23 ar 
    26   23   24 ar 
    27   24   25 ar 
    28    8   26 1  
    29    9   27 1  
    30   10   28 1  
    31   11   29 1  
    32   17   30 1  
    33   18   31 1  
    34   19   32 1  
    35   22   33 1  
    36   23   34 1  
    37   24   35 1  
    38   25   36 1  
@<TRIPOS>SUBSTRUCTURE
     1 794         1

