### 
### Created by X-TOOL on Mon Sep 10 21:12:50 2018
### 

@<TRIPOS>MOLECULE
1no9_ligand
   26    27     1     0     0
SMALL
GAST_HUCK


@<TRIPOS>ATOM
      1 C1         15.2080  -10.4800   19.5460 C.2       1 4ND         0.2237
      2 O1         16.2040  -10.6340   18.8130 O.2       1 4ND        -0.3594
      3 N5         14.8240  -11.4450   20.4230 N.am      1 4ND        -0.1721
      4 C3         13.6480  -11.2690   21.3530 C.ar      1 4ND         0.0921
      5 C4         13.6720  -10.2510   22.3510 C.ar      1 4ND        -0.0353
      6 C5         12.5840  -10.0910   23.2530 C.ar      1 4ND        -0.0734
      7 C6         11.4610  -10.9450   23.1650 C.ar      1 4ND        -0.0756
      8 C7         11.4230  -11.9600   22.1700 C.ar      1 4ND        -0.0734
      9 C8         12.5050  -12.1260   21.2680 C.ar      1 4ND        -0.0353
     10 C9         15.6140  -12.7130   20.4950 C.ar      1 4ND         0.0921
     11 C10        15.2590  -13.8130   19.6580 C.ar      1 4ND        -0.0353
     12 C11        16.0110  -15.0260   19.7170 C.ar      1 4ND        -0.0734
     13 C12        17.1140  -15.1400   20.6080 C.ar      1 4ND        -0.0756
     14 C13        17.4730  -14.0430   21.4470 C.ar      1 4ND        -0.0734
     15 C14        16.7190  -12.8260   21.3890 C.ar      1 4ND        -0.0353
     16 H1         14.6351   -9.5560   19.4828 H         1 4ND         0.1679
     17 H2         14.5292   -9.5915   22.4231 H         1 4ND         0.0523
     18 H3         12.6160   -9.3140   24.0081 H         1 4ND         0.0581
     19 H4         10.6320  -10.8265   23.8534 H         1 4ND         0.0501
     20 H5         10.5600  -12.6123   22.1002 H         1 4ND         0.0581
     21 H6         12.4661  -12.9031   20.5132 H         1 4ND         0.0523
     22 H7         14.4192  -13.7281   18.9779 H         1 4ND         0.0523
     23 H8         15.7406  -15.8615   19.0814 H         1 4ND         0.0581
     24 H9         17.6828  -16.0618   20.6497 H         1 4ND         0.0501
     25 H10        18.3135  -14.1301   22.1261 H         1 4ND         0.0581
     26 H11        16.9888  -11.9908   22.0251 H         1 4ND         0.0523
@<TRIPOS>BOND
     1    1    2 2  
     2    1    3 am 
     3    3    4 1  
     4    3   10 1  
     5    4    5 ar 
     6    4    9 ar 
     7    5    6 ar 
     8    6    7 ar 
     9    7    8 ar 
    10    8    9 ar 
    11   10   11 ar 
    12   10   15 ar 
    13   11   12 ar 
    14   12   13 ar 
    15   13   14 ar 
    16   14   15 ar 
    17    1   16 1  
    18    5   17 1  
    19    6   18 1  
    20    7   19 1  
    21    8   20 1  
    22    9   21 1  
    23   11   22 1  
    24   12   23 1  
    25   13   24 1  
    26   14   25 1  
    27   15   26 1  
@<TRIPOS>SUBSTRUCTURE
     1 4ND         1

