### 
### Created by X-TOOL on Mon Sep 10 21:12:45 2018
### 

@<TRIPOS>MOLECULE
1noi_ligand
   24    25     1     0     0
SMALL
GAST_HUCK


@<TRIPOS>ATOM
      1 H1         44.7298    3.3930   18.4092 H         1 NTZ         0.0891
      2 H2         43.0262    3.0539   20.9074 H         1 NTZ         0.0678
      3 H3         44.1636    0.8839   19.0655 H         1 NTZ         0.0656
      4 H4         44.3073    1.0971   22.1024 H         1 NTZ         0.0734
      5 H5         44.6584   -1.1182   21.5372 H         1 NTZ         0.0590
      6 H6         46.3153   -0.4358   21.6625 H         1 NTZ         0.0590
      7 H7         43.3945    5.1177   19.0587 H         1 NTZ         0.2143
      8 H8         42.0389    3.7274   18.9397 H         1 NTZ         0.2103
      9 H9         42.2640    0.8085   21.2199 H         1 NTZ         0.2100
     10 H10        46.2972   -0.2876   19.3441 H         1 NTZ         0.2095
     11 C1         45.7870    3.1450   20.2780 C.2       1 NTZ         0.1975
     12 C2         44.5270    3.5800   19.4740 C.3       1 NTZ         0.1694
     13 C3         43.3610    2.7060   19.9190 C.3       1 NTZ         0.1278
     14 C4         43.7660    1.2300   20.0310 C.3       1 NTZ         0.1212
     15 C5         44.8010    0.9750   21.1270 C.3       1 NTZ         0.1447
     16 C6         45.3810   -0.4250   21.0820 C.3       1 NTZ         0.0799
     17 N1         45.8160    1.9690   21.0050 N.pl3     1 NTZ        -0.1275
     18 N17        47.0810    1.9990   21.5500 N.2       1 NTZ        -0.0699
     19 N18        47.7340    3.1270   21.1820 N.2       1 NTZ        -0.1529
     20 N21        46.9490    3.8420   20.3670 N.2       1 NTZ        -0.2201
     21 O2         44.1530    4.9450   19.6040 O.3       1 NTZ        -0.3672
     22 O3         42.2960    2.8160   19.0150 O.3       1 NTZ        -0.3836
     23 O4         42.5860    0.5030   20.3800 O.3       1 NTZ        -0.3856
     24 O6         45.6670   -0.8740   19.7460 O.3       1 NTZ        -0.3917
@<TRIPOS>BOND
     1   12    1 1  
     2   13    2 1  
     3   14    3 1  
     4   15    4 1  
     5   16    5 1  
     6   16    6 1  
     7   21    7 1  
     8   22    8 1  
     9   23    9 1  
    10   24   10 1  
    11   11   12 1  
    12   17   11 1  
    13   11   20 2  
    14   13   12 1  
    15   12   21 1  
    16   14   13 1  
    17   13   22 1  
    18   15   14 1  
    19   14   23 1  
    20   16   15 1  
    21   15   17 1  
    22   16   24 1  
    23   17   18 1  
    24   18   19 2  
    25   19   20 1  
@<TRIPOS>SUBSTRUCTURE
     1 NTZ         1

