### 
### Created by X-TOOL on Mon Sep 10 21:12:45 2018
### 

@<TRIPOS>MOLECULE
1noj_ligand
   24    25     1     0     0
SMALL
GAST_HUCK


@<TRIPOS>ATOM
      1 H1         35.0871   22.7274   25.5600 H         1 NTZ         0.0891
      2 H2         32.0708   23.2750   25.7265 H         1 NTZ         0.0678
      3 H3         33.5137   20.5912   25.5282 H         1 NTZ         0.0656
      4 H4         31.4660   21.4917   27.6181 H         1 NTZ         0.0734
      5 H5         31.4576   19.1703   27.6224 H         1 NTZ         0.0590
      6 H6         32.6521   19.5802   28.8998 H         1 NTZ         0.0590
      7 H7         34.3205   24.8065   24.9817 H         1 NTZ         0.2143
      8 H8         33.2923   23.5785   23.7442 H         1 NTZ         0.2103
      9 H9         30.7273   21.2152   25.4263 H         1 NTZ         0.2100
     10 H10        34.2973   19.2346   27.3005 H         1 NTZ         0.2095
     11 C1         34.2960   22.7680   27.5250 C.2       1 NTZ         0.1975
     12 C2         34.2310   23.1820   26.0800 C.3       1 NTZ         0.1694
     13 C3         32.9220   22.6430   25.4330 C.3       1 NTZ         0.1278
     14 C4         32.6480   21.2010   25.8260 C.3       1 NTZ         0.1212
     15 C5         32.4420   21.0550   27.3600 C.3       1 NTZ         0.1447
     16 C6         32.4450   19.6130   27.8200 C.3       1 NTZ         0.0799
     17 N1         33.4670   21.7860   28.0390 N.pl3     1 NTZ        -0.1275
     18 N17        33.8730   21.6990   29.3640 N.2       1 NTZ        -0.0699
     19 N18        34.9080   22.6060   29.6140 N.2       1 NTZ        -0.1529
     20 N21        35.1840   23.2940   28.4460 N.2       1 NTZ        -0.2201
     21 O2         34.3180   24.6000   25.9090 O.3       1 NTZ        -0.3672
     22 O3         33.1190   22.6840   24.0130 O.3       1 NTZ        -0.3836
     23 O4         31.4850   20.7110   25.1540 O.3       1 NTZ        -0.3856
     24 O6         33.4420   18.8580   27.1300 O.3       1 NTZ        -0.3917
@<TRIPOS>BOND
     1   12    1 1  
     2   13    2 1  
     3   14    3 1  
     4   15    4 1  
     5   16    5 1  
     6   16    6 1  
     7   21    7 1  
     8   22    8 1  
     9   23    9 1  
    10   24   10 1  
    11   11   12 1  
    12   17   11 1  
    13   11   20 2  
    14   13   12 1  
    15   12   21 1  
    16   14   13 1  
    17   13   22 1  
    18   15   14 1  
    19   14   23 1  
    20   16   15 1  
    21   15   17 1  
    22   16   24 1  
    23   17   18 1  
    24   18   19 2  
    25   19   20 1  
@<TRIPOS>SUBSTRUCTURE
     1 NTZ         1

