### 
### Created by X-TOOL on Mon Sep 10 21:12:45 2018
### 

@<TRIPOS>MOLECULE
1nok_ligand
   24    25     1     0     0
SMALL
GAST_HUCK


@<TRIPOS>ATOM
      1 H1         35.0326   22.6361   25.5929 H         1 NTZ         0.0891
      2 H2         32.0622   23.2102   25.8598 H         1 NTZ         0.0678
      3 H3         33.4779   20.4923   25.6921 H         1 NTZ         0.0656
      4 H4         31.3486   21.5280   27.6655 H         1 NTZ         0.0734
      5 H5         31.1877   19.1427   27.6908 H         1 NTZ         0.0590
      6 H6         32.1719   19.6005   29.1221 H         1 NTZ         0.0590
      7 H7         34.2946   24.7295   25.0274 H         1 NTZ         0.2143
      8 H8         33.1148   23.4766   23.8007 H         1 NTZ         0.2103
      9 H9         30.7424   21.2350   25.3719 H         1 NTZ         0.2100
     10 H10        34.0583   19.0758   27.8395 H         1 NTZ         0.2095
     11 C1         34.2220   22.6130   27.5810 C.2       1 NTZ         0.1975
     12 C2         34.1850   23.0950   26.1230 C.3       1 NTZ         0.1694
     13 C3         32.8880   22.5700   25.5160 C.3       1 NTZ         0.1278
     14 C4         32.6040   21.1180   25.9260 C.3       1 NTZ         0.1212
     15 C5         32.2920   20.9990   27.4650 C.3       1 NTZ         0.1447
     16 C6         32.1480   19.5640   28.0230 C.3       1 NTZ         0.0799
     17 N1         33.3500   21.6550   28.1260 N.pl3     1 NTZ        -0.1275
     18 N17        33.7280   21.5170   29.4530 N.2       1 NTZ        -0.0699
     19 N18        34.8110   22.3620   29.6840 N.2       1 NTZ        -0.1529
     20 N21        35.1390   23.0620   28.5180 N.2       1 NTZ        -0.2201
     21 O2         34.3020   24.5200   25.9540 O.3       1 NTZ        -0.3672
     22 O3         32.9400   22.5910   24.0970 O.3       1 NTZ        -0.3836
     23 O4         31.4940   20.6920   25.1650 O.3       1 NTZ        -0.3856
     24 O6         33.2270   18.7170   27.5520 O.3       1 NTZ        -0.3917
@<TRIPOS>BOND
     1   12    1 1  
     2   13    2 1  
     3   14    3 1  
     4   15    4 1  
     5   16    5 1  
     6   16    6 1  
     7   21    7 1  
     8   22    8 1  
     9   23    9 1  
    10   24   10 1  
    11   11   12 1  
    12   17   11 1  
    13   11   20 2  
    14   13   12 1  
    15   12   21 1  
    16   14   13 1  
    17   13   22 1  
    18   15   14 1  
    19   14   23 1  
    20   16   15 1  
    21   15   17 1  
    22   16   24 1  
    23   17   18 1  
    24   18   19 2  
    25   19   20 1  
@<TRIPOS>SUBSTRUCTURE
     1 NTZ         1

