### 
### Created by X-TOOL on Mon Sep 10 21:12:50 2018
### 

@<TRIPOS>MOLECULE
1np0_ligand
   27    28     1     0     0
SMALL
GAST_HUCK


@<TRIPOS>ATOM
      1 C1          5.1240   22.0470   34.8260 C.3       1 NGT         0.1382
      2 C2          5.1610   23.3160   35.7290 C.3       1 NGT         0.0652
      3 C3          6.6420   23.6460   36.2170 C.3       1 NGT         0.0954
      4 C4          7.4490   22.4060   36.5250 C.3       1 NGT         0.1101
      5 C5          7.4060   21.4480   35.3480 C.3       1 NGT         0.1116
      6 C6          8.2390   20.1900   35.5460 C.3       1 NGT         0.0730
      7 C7          4.7750   24.2600   33.7040 C.2       1 NGT         0.0728
      8 C8          4.3410   25.2330   32.6480 C.3       1 NGT         0.0106
      9 N2          4.6610   24.4170   34.9510 N.2       1 NGT        -0.3502
     10 S1          5.4270   22.7120   33.1540 S.3       1 NGT        -0.0199
     11 O3          6.5930   24.4980   37.3510 O.3       1 NGT        -0.3883
     12 O4          8.7840   22.7800   36.8010 O.3       1 NGT        -0.3866
     13 O5          6.0500   21.0350   35.0950 O.3       1 NGT        -0.3535
     14 O6          8.0000   19.2560   34.5010 O.3       1 NGT        -0.3924
     15 H1          4.1199   21.6018   34.8853 H         1 NGT         0.0761
     16 H2          4.5196   23.1577   36.6085 H         1 NGT         0.0431
     17 H3          7.1522   24.1828   35.4037 H         1 NGT         0.0628
     18 H4          7.0232   21.9073   37.4081 H         1 NGT         0.0646
     19 H5          7.7899   21.9814   34.4659 H         1 NGT         0.0646
     20 H6          7.9732   19.7294   36.5089 H         1 NGT         0.0584
     21 H7          9.3052   20.4606   35.5508 H         1 NGT         0.0584
     22 H8          3.9587   26.1468   33.1263 H         1 NGT         0.0521
     23 H9          3.5472   24.7800   32.0359 H         1 NGT         0.0521
     24 H10         5.1988   25.4858   32.0075 H         1 NGT         0.0521
     25 H11         6.0831   25.2720   37.1424 H         1 NGT         0.2099
     26 H12         9.2918   22.0051   37.0112 H         1 NGT         0.2100
     27 H13         8.5290   18.4800   34.6442 H         1 NGT         0.2095
@<TRIPOS>BOND
     1    2    1 1  
     2    1   10 1  
     3    1   13 1  
     4    2    3 1  
     5    9    2 1  
     6    3    4 1  
     7    3   11 1  
     8    4    5 1  
     9    4   12 1  
    10    5    6 1  
    11   13    5 1  
    12    6   14 1  
    13    7    8 1  
    14    7    9 2  
    15    7   10 1  
    16    1   15 1  
    17    2   16 1  
    18    3   17 1  
    19    4   18 1  
    20    5   19 1  
    21    6   20 1  
    22    6   21 1  
    23    8   22 1  
    24    8   23 1  
    25    8   24 1  
    26   11   25 1  
    27   12   26 1  
    28   14   27 1  
@<TRIPOS>SUBSTRUCTURE
     1 NGT         1

