### 
### Created by X-TOOL on Mon Sep 10 21:12:51 2018
### 

@<TRIPOS>MOLECULE
1npa_ligand
   85    90     1     0     0
SMALL
GAST_HUCK


@<TRIPOS>ATOM
      1 O2          8.2490   28.8630    3.7620 O.2       1 3NH        -0.3777
      2 C1          7.8180   27.9180    4.3650 C.2       1 3NH         0.3176
      3 O1          8.5760   27.2840    5.2550 O.3       1 3NH        -0.2552
      4 C20         8.1890   26.1200    6.0240 C.3       1 3NH         0.1117
      5 C22         7.4440   26.6540    7.2600 C.3       1 3NH         0.0123
      6 C23         8.6370   27.1610    8.0100 C.ar      1 3NH        -0.0366
      7 C24         8.6320   28.1110    9.0310 C.ar      1 3NH        -0.0667
      8 C25         9.8220   28.3700    9.6880 C.ar      1 3NH        -0.0756
      9 C26        11.0070   27.7100    9.3180 C.ar      1 3NH        -0.0755
     10 C27        11.0110   26.7750    8.2760 C.ar      1 3NH        -0.0656
     11 C28         9.8170   26.5070    7.6230 C.ar      1 3NH        -0.0300
     12 C19         9.5250   25.5000    6.5350 C.3       1 3NH         0.0460
     13 C35        10.5560   25.2870    5.4780 C.2       1 3NH         0.0258
     14 C17        10.9040   23.9890    4.9990 C.2       1 3NH         0.1460
     15 O18        10.5420   22.9290    5.4510 O.2       1 3NH        -0.3595
     16 C09        11.9120   24.1240    3.8330 C.3       1 3NH         0.1187
     17 N29        12.1730   25.5640    3.8210 N.pl3     1 3NH        -0.3112
     18 C30        11.2700   26.1570    4.7970 C.2       1 3NH         0.0208
     19 C10        11.2700   23.5450    2.5540 C.3       1 3NH         0.0114
     20 C11         9.8450   24.0490    2.3930 C.ar      1 3NH        -0.0418
     21 C12         9.6550   25.2680    1.7570 C.ar      1 3NH        -0.0604
     22 C13         8.4140   25.7910    1.5750 C.ar      1 3NH        -0.0686
     23 C14         7.3390   25.1140    2.0520 C.ar      1 3NH        -0.0687
     24 C15         7.5240   23.8880    2.6860 C.ar      1 3NH        -0.0686
     25 C16         8.7640   23.3480    2.8700 C.ar      1 3NH        -0.0604
     26 C08        13.2080   23.3510    4.2340 C.3       1 3NH         0.0077
     27 C06        13.9690   24.0870    5.4140 C.3       1 3NH         0.0813
     28 O07        14.9650   24.8220    4.6790 O.3       1 3NH        -0.3894
     29 C05        14.6830   23.1010    6.3600 C.3       1 3NH         0.0791
     30 NP4        15.5800   22.1280    5.6740 N.am      1 3NH        -0.2550
     31 C02        15.2890   20.8480    5.2260 C.2       1 3NH         0.3203
     32 O03        14.2150   20.3330    5.1510 O.2       1 3NH        -0.3775
     33 O01        16.3590   20.2300    4.8580 O.3       1 3NH        -0.2582
     34 C44        16.3970   19.1880    3.9240 C.3       1 3NH         0.1134
     35 C45        17.5580   18.2690    3.8740 C.3       1 3NH         0.0782
     36 O46        17.8440   18.4280    2.5150 O.3       1 3NH        -0.3768
     37 C47        16.6140   18.4100    1.7530 C.3       1 3NH         0.0505
     38 C48        15.5140   18.8350    2.7580 C.3       1 3NH         0.0034
     39 C36        15.4810   23.7500    7.4900 C.3       1 3NH         0.0063
     40 C37        16.0460   22.6460    8.4050 C.ar      1 3NH        -0.0408
     41 C38        15.1370   21.8960    9.1690 C.ar      1 3NH        -0.0603
     42 C39        15.5790   20.7920    9.9160 C.ar      1 3NH        -0.0686
     43 C40        16.9330   20.4340    9.9640 C.ar      1 3NH        -0.0687
     44 C41        17.8570   21.2140    9.2590 C.ar      1 3NH        -0.0686
     45 C42        17.4120   22.3100    8.4810 C.ar      1 3NH        -0.0603
     46 N1          6.5480   27.5570    4.3160 N.am      1 3NH        -0.2763
     47 H1          7.5853   25.4067    5.4438 H         1 3NH         0.0708
     48 H2          6.9149   25.8584    7.8051 H         1 3NH         0.0443
     49 H3          6.7370   27.4578    7.0069 H         1 3NH         0.0443
     50 H4          7.7211   28.6321    9.3024 H         1 3NH         0.0537
     51 H5          9.8408   29.0905   10.4977 H         1 3NH         0.0540
     52 H6         11.9285   27.9277    9.8458 H         1 3NH         0.0541
     53 H7         11.9264   26.2719    7.9861 H         1 3NH         0.0538
     54 H8          9.3385   24.5150    6.9877 H         1 3NH         0.0561
     55 H9         12.8607   26.0605    3.2367 H         1 3NH         0.1834
     56 H10        11.1921   27.2323    4.9506 H         1 3NH         0.1005
     57 H11        11.2594   22.4471    2.6204 H         1 3NH         0.0435
     58 H12        11.8631   23.8538    1.6806 H         1 3NH         0.0435
     59 H13        10.5178   25.8164    1.3966 H         1 3NH         0.0557
     60 H14         8.2848   26.7343    1.0568 H         1 3NH         0.0599
     61 H15         6.3422   25.5251    1.9402 H         1 3NH         0.0559
     62 H16         6.6565   23.3458    3.0444 H         1 3NH         0.0599
     63 H17         8.8916   22.3977    3.3757 H         1 3NH         0.0557
     64 H18        13.8739   23.2886    3.3607 H         1 3NH         0.0302
     65 H19        12.9350   22.3366    4.5601 H         1 3NH         0.0302
     66 H20        13.2965   24.7434    5.9858 H         1 3NH         0.0617
     67 H21        15.5020   25.3187    5.2852 H         1 3NH         0.2099
     68 H22        13.8806   22.5165    6.8338 H         1 3NH         0.0604
     69 H23        16.5169   22.4398    5.5156 H         1 3NH         0.1873
     70 H24        15.8122   18.5593    4.6115 H         1 3NH         0.0671
     71 H25        17.2864   17.2339    4.1283 H         1 3NH         0.0589
     72 H26        18.3849   18.6003    4.5194 H         1 3NH         0.0589
     73 H27        16.4141   17.4003    1.3651 H         1 3NH         0.0561
     74 H28        16.6677   19.1207    0.9151 H         1 3NH         0.0561
     75 H29        14.9371   19.7000    2.3989 H         1 3NH         0.0316
     76 H30        14.8274   18.0087    2.9940 H         1 3NH         0.0316
     77 H31        14.8233   24.4112    8.0732 H         1 3NH         0.0449
     78 H32        16.3091   24.3372    7.0664 H         1 3NH         0.0449
     79 H33        14.0885   22.1708    9.1822 H         1 3NH         0.0557
     80 H34        14.8559   20.2030   10.4684 H         1 3NH         0.0599
     81 H35        17.2578   19.5716   10.5348 H         1 3NH         0.0559
     82 H36        18.9140   20.9788    9.3087 H         1 3NH         0.0599
     83 H37        18.1363   22.9020    7.9333 H         1 3NH         0.0557
     84 H38         5.9277   27.9975    3.6670 H         1 3NH         0.1831
     85 H39         6.2071   26.8433    4.9279 H         1 3NH         0.1831
@<TRIPOS>BOND
     1    1    2 2  
     2    2    3 1  
     3    2   46 am 
     4    3    4 1  
     5    4    5 1  
     6    4   12 1  
     7    5    6 1  
     8    6    7 ar 
     9    6   11 ar 
    10    7    8 ar 
    11    8    9 ar 
    12    9   10 ar 
    13   10   11 ar 
    14   11   12 1  
    15   12   13 1  
    16   13   14 1  
    17   13   18 2  
    18   14   15 2  
    19   14   16 1  
    20   16   17 1  
    21   16   19 1  
    22   16   26 1  
    23   17   18 1  
    24   19   20 1  
    25   20   21 ar 
    26   20   25 ar 
    27   21   22 ar 
    28   22   23 ar 
    29   23   24 ar 
    30   24   25 ar 
    31   26   27 1  
    32   27   28 1  
    33   27   29 1  
    34   29   30 1  
    35   29   39 1  
    36   30   31 am 
    37   31   32 2  
    38   31   33 1  
    39   33   34 1  
    40   34   35 1  
    41   34   38 1  
    42   35   36 1  
    43   36   37 1  
    44   37   38 1  
    45   39   40 1  
    46   40   41 ar 
    47   40   45 ar 
    48   41   42 ar 
    49   42   43 ar 
    50   43   44 ar 
    51   44   45 ar 
    52    4   47 1  
    53    5   48 1  
    54    5   49 1  
    55    7   50 1  
    56    8   51 1  
    57    9   52 1  
    58   10   53 1  
    59   12   54 1  
    60   17   55 1  
    61   18   56 1  
    62   19   57 1  
    63   19   58 1  
    64   21   59 1  
    65   22   60 1  
    66   23   61 1  
    67   24   62 1  
    68   25   63 1  
    69   26   64 1  
    70   26   65 1  
    71   27   66 1  
    72   28   67 1  
    73   29   68 1  
    74   30   69 1  
    75   34   70 1  
    76   35   71 1  
    77   35   72 1  
    78   37   73 1  
    79   37   74 1  
    80   38   75 1  
    81   38   76 1  
    82   39   77 1  
    83   39   78 1  
    84   41   79 1  
    85   42   80 1  
    86   43   81 1  
    87   44   82 1  
    88   45   83 1  
    89   46   84 1  
    90   46   85 1  
@<TRIPOS>SUBSTRUCTURE
     1 3NH         1

