### 
### Created by X-TOOL on Mon Sep 10 21:12:50 2018
### 

@<TRIPOS>MOLECULE
1npv_ligand
   81    86     1     0     0
SMALL
GAST_HUCK


@<TRIPOS>ATOM
      1 O01        15.9090   20.9070    4.7110 O.3       1 L27        -0.2582
      2 C02        14.8520   21.5950    5.0890 C.2       1 L27         0.3203
      3 O03        13.7730   21.1160    5.2840 O.2       1 L27        -0.3775
      4 NP4        15.1310   22.9010    5.2760 N.am      1 L27        -0.2550
      5 C05        14.2970   23.7400    6.0900 C.3       1 L27         0.0791
      6 C06        13.7980   24.8410    5.1410 C.3       1 L27         0.0813
      7 O07        14.7890   25.5340    4.6210 O.3       1 L27        -0.3894
      8 C08        12.9360   24.2940    3.9960 C.3       1 L27         0.0077
      9 C09        11.4780   24.8040    3.9980 C.3       1 L27         0.1188
     10 C10        10.7410   24.3750    2.6810 C.3       1 L27         0.0114
     11 C11         9.3350   24.9370    2.5090 C.ar      1 L27        -0.0418
     12 C12         9.1760   26.1690    1.7420 C.ar      1 L27        -0.0604
     13 C13         7.9320   26.9030    1.8440 C.ar      1 L27        -0.0686
     14 C14         6.8660   26.3470    2.6870 C.ar      1 L27        -0.0687
     15 C15         6.9570   25.0230    3.3110 C.ar      1 L27        -0.0686
     16 C16         8.2160   24.3000    3.2220 C.ar      1 L27        -0.0604
     17 C17        10.7280   24.3830    5.2970 C.2       1 L27         0.1464
     18 O18        10.4930   23.2800    5.6900 O.2       1 L27        -0.3594
     19 N29        11.5240   26.2810    4.1000 N.pl3     1 L27        -0.3110
     20 C30        10.8990   26.6280    5.2480 C.2       1 L27         0.0213
     21 C35        10.4310   25.6090    6.0020 C.2       1 L27         0.0270
     22 C36        15.1830   24.2280    7.2390 C.3       1 L27         0.0063
     23 C37        15.6950   23.1100    8.1230 C.ar      1 L27        -0.0408
     24 C38        14.7630   22.3010    8.9180 C.ar      1 L27        -0.0603
     25 C39        15.2840   21.1860    9.6830 C.ar      1 L27        -0.0686
     26 C40        16.7190   20.9320    9.6390 C.ar      1 L27        -0.0687
     27 C41        17.6600   21.7480    8.8870 C.ar      1 L27        -0.0686
     28 C42        17.1320   22.8610    8.1290 C.ar      1 L27        -0.0603
     29 C44        15.9810   19.4130    4.5540 C.3       1 L27         0.1134
     30 C45        17.4180   18.9090    4.3920 C.3       1 L27         0.0782
     31 O46        17.8460   19.3150    3.1010 O.3       1 L27        -0.3768
     32 C47        16.6730   19.5170    2.3240 C.3       1 L27         0.0505
     33 C48        15.5590   18.9260    3.1670 C.3       1 L27         0.0034
     34 C49         8.4530   24.8610    7.4740 C.3       1 L27         0.0475
     35 C50         9.7950   25.6010    7.4060 C.3       1 L27         0.0398
     36 C51         9.5830   26.9620    7.9530 C.ar      1 L27        -0.0128
     37 C52         8.3890   27.6650    7.5280 C.ar      1 L27         0.0523
     38 C53         7.3770   26.8810    6.7750 C.2       1 L27         0.2003
     39 N54         7.4450   25.6050    6.7910 N.am      1 L27        -0.2838
     40 C55        10.5440   27.5400    8.8800 C.ar      1 L27        -0.0532
     41 C56        10.2320   28.8580    9.3500 C.ar      1 L27        -0.0642
     42 C57         9.0300   29.5690    8.9500 C.ar      1 L27        -0.0631
     43 C58         8.0980   28.9930    8.0100 C.ar      1 L27        -0.0486
     44 O59         6.4930   27.4570    6.1600 O.2       1 L27        -0.3886
     45 H1         15.9385   23.2949    4.8370 H         1 L27         0.1873
     46 H2         13.4395   23.1847    6.4978 H         1 L27         0.0604
     47 H3         13.1765   25.5267    5.7356 H         1 L27         0.0617
     48 H4         15.2855   25.9464    5.3181 H         1 L27         0.2099
     49 H5         12.9172   23.1969    4.0728 H         1 L27         0.0302
     50 H6         13.4020   24.5870    3.0437 H         1 L27         0.0302
     51 H7         10.6715   23.2772    2.6726 H         1 L27         0.0436
     52 H8         11.3479   24.7106    1.8272 H         1 L27         0.0436
     53 H9          9.9768   26.5287    1.1060 H         1 L27         0.0557
     54 H10         7.7915   27.8373    1.3126 H         1 L27         0.0599
     55 H11         5.9744   26.9401    2.8551 H         1 L27         0.0559
     56 H12         6.1058   24.5932    3.8266 H         1 L27         0.0599
     57 H13         8.3271   23.3186    3.6687 H         1 L27         0.0557
     58 H14        11.9533   26.9256    3.4210 H         1 L27         0.1835
     59 H15        10.7798   27.6682    5.5474 H         1 L27         0.1008
     60 H16        14.5976   24.9223    7.8596 H         1 L27         0.0449
     61 H17        16.0472   24.7576    6.8117 H         1 L27         0.0449
     62 H18        13.7043   22.5335    8.9325 H         1 L27         0.0557
     63 H19        14.6250   20.5581   10.2717 H         1 L27         0.0599
     64 H20        17.1065   20.0879   10.1979 H         1 L27         0.0559
     65 H21        18.7216   21.5291    8.8945 H         1 L27         0.0599
     66 H22        17.7999   23.5057    7.5692 H         1 L27         0.0557
     67 H23        15.4326   18.9265    5.3741 H         1 L27         0.0671
     68 H24        17.4474   17.8125    4.4743 H         1 L27         0.0589
     69 H25        18.0651   19.3521    5.1633 H         1 L27         0.0589
     70 H26        16.7502   18.9950    1.3588 H         1 L27         0.0561
     71 H27        16.5018   20.5893    2.1483 H         1 L27         0.0561
     72 H28        14.5749   19.3232    2.8778 H         1 L27         0.0316
     73 H29        15.5428   17.8277    3.1084 H         1 L27         0.0316
     74 H30         8.5584   23.8732    7.0016 H         1 L27         0.0561
     75 H31         8.1607   24.7346    8.5269 H         1 L27         0.0561
     76 H32        10.4998   25.0770    8.0683 H         1 L27         0.0578
     77 H33         6.7453   25.0940    6.2917 H         1 L27         0.1845
     78 H34        11.4358   27.0098    9.1941 H         1 L27         0.0569
     79 H35        10.9210   29.3437   10.0315 H         1 L27         0.0634
     80 H36         8.8292   30.5501    9.3650 H         1 L27         0.0570
     81 H37         7.2185   29.5345    7.6810 H         1 L27         0.0651
@<TRIPOS>BOND
     1    1    2 1  
     2    1   29 1  
     3    2    3 2  
     4    2    4 am 
     5    4    5 1  
     6    5    6 1  
     7    5   22 1  
     8    6    7 1  
     9    6    8 1  
    10    8    9 1  
    11    9   10 1  
    12    9   17 1  
    13    9   19 1  
    14   10   11 1  
    15   11   12 ar 
    16   11   16 ar 
    17   12   13 ar 
    18   13   14 ar 
    19   14   15 ar 
    20   15   16 ar 
    21   17   18 2  
    22   17   21 1  
    23   19   20 1  
    24   20   21 2  
    25   21   35 1  
    26   22   23 1  
    27   23   24 ar 
    28   23   28 ar 
    29   24   25 ar 
    30   25   26 ar 
    31   26   27 ar 
    32   27   28 ar 
    33   29   30 1  
    34   29   33 1  
    35   30   31 1  
    36   31   32 1  
    37   32   33 1  
    38   35   36 1  
    39   36   37 ar 
    40   36   40 ar 
    41   37   38 1  
    42   37   43 ar 
    43   38   39 am 
    44   38   44 2  
    45   40   41 ar 
    46   41   42 ar 
    47   42   43 ar 
    48   39   34 1  
    49   35   34 1  
    50    4   45 1  
    51    5   46 1  
    52    6   47 1  
    53    7   48 1  
    54    8   49 1  
    55    8   50 1  
    56   10   51 1  
    57   10   52 1  
    58   12   53 1  
    59   13   54 1  
    60   14   55 1  
    61   15   56 1  
    62   16   57 1  
    63   19   58 1  
    64   20   59 1  
    65   22   60 1  
    66   22   61 1  
    67   24   62 1  
    68   25   63 1  
    69   26   64 1  
    70   27   65 1  
    71   28   66 1  
    72   29   67 1  
    73   30   68 1  
    74   30   69 1  
    75   32   70 1  
    76   32   71 1  
    77   33   72 1  
    78   33   73 1  
    79   34   74 1  
    80   34   75 1  
    81   35   76 1  
    82   39   77 1  
    83   40   78 1  
    84   41   79 1  
    85   42   80 1  
    86   43   81 1  
@<TRIPOS>SUBSTRUCTURE
     1 L27         1

