### 
### Created by X-TOOL on Mon Sep 10 21:12:50 2018
### 

@<TRIPOS>MOLECULE
1npz_ligand
   76    78     1     0     0
SMALL
GAST_HUCK


@<TRIPOS>ATOM
      1 N1        -16.4930   62.0140  -37.5710 N.am      1 C1P        -0.2517
      2 C15       -16.6420   62.7380  -38.7250 C.2       1 C1P         0.2623
      3 O16       -16.5370   62.1810  -39.8420 O.2       1 C1P        -0.4005
      4 N9        -16.9200   64.0970  -38.7740 N.am      1 C1P        -0.2550
      5 C14       -17.0790   64.7780  -40.1390 C.3       1 C1P         0.0577
      6 C13       -18.2170   65.7750  -40.2120 C.3       1 C1P         0.0678
      7 O12       -18.2550   66.6370  -38.9710 O.3       1 C1P        -0.3758
      8 C11       -18.3040   65.8650  -37.7270 C.3       1 C1P         0.0678
      9 C10       -17.0920   64.9570  -37.5810 C.3       1 C1P         0.0577
     10 C2        -16.2230   60.5470  -37.6660 C.3       1 C1P         0.1314
     11 C3        -17.4470   59.9310  -38.2680 C.2       1 C1P         0.2017
     12 O4        -18.5540   60.2540  -37.8750 O.2       1 C1P        -0.3946
     13 N28       -17.2290   59.0180  -39.2350 N.am      1 C1P        -0.2818
     14 C19       -18.3090   58.3240  -39.9410 C.3       1 C1P         0.0453
     15 C18       -18.2340   56.8300  -39.6600 C.3       1 C1P        -0.0099
     16 C17       -16.9430   56.1570  -40.2360 C.3       1 C1P         0.0730
     17 S33       -17.4540   55.0100  -41.5650 S.o2      1 C1P        -0.0030
     18 O34       -18.3860   55.6760  -42.5810 O.2       1 C1P        -0.1694
     19 O35       -18.0690   53.7060  -41.0800 O.2       1 C1P        -0.1694
     20 C32       -16.0010   54.5810  -42.5120 C.ar      1 C1P         0.0882
     21 C36       -16.0870   53.7960  -43.7000 C.ar      1 C1P        -0.0369
     22 C37       -14.8920   53.3950  -44.4000 C.ar      1 C1P        -0.0600
     23 C29       -13.6230   53.7940  -43.9470 C.ar      1 C1P        -0.0616
     24 C30       -13.5140   54.6010  -42.8170 C.ar      1 C1P        -0.0600
     25 C31       -14.6860   55.0130  -42.1070 C.ar      1 C1P        -0.0369
     26 C20       -18.1690   58.6900  -41.4480 C.3       1 C1P        -0.0201
     27 C21       -18.4830   60.1570  -41.7160 C.3       1 C1P        -0.0171
     28 C22       -18.3070   60.5880  -43.1490 C.ar      1 C1P        -0.0429
     29 C23       -19.3920   60.5140  -44.0800 C.ar      1 C1P        -0.0603
     30 C24       -19.2210   60.9160  -45.4440 C.ar      1 C1P        -0.0686
     31 C25       -17.9640   61.3970  -45.8840 C.ar      1 C1P        -0.0687
     32 C26       -16.8630   61.4840  -44.9610 C.ar      1 C1P        -0.0686
     33 C27       -17.0330   61.0790  -43.5930 C.ar      1 C1P        -0.0603
     34 C5        -16.0200   59.8570  -36.3220 C.3       1 C1P        -0.0103
     35 C6        -15.0320   60.4900  -35.3810 C.3       1 C1P        -0.0425
     36 C7        -13.8410   60.9920  -36.1610 C.3       1 C1P        -0.0625
     37 C8        -14.6910   59.6010  -34.2800 C.3       1 C1P        -0.0625
     38 H1        -16.5638   62.4604  -36.6790 H         1 C1P         0.1877
     39 H2        -17.2560   63.9980  -40.8941 H         1 C1P         0.0542
     40 H3        -16.1428   65.3070  -40.3707 H         1 C1P         0.0542
     41 H4        -19.1685   65.2305  -40.3022 H         1 C1P         0.0580
     42 H5        -18.0774   66.4179  -41.0936 H         1 C1P         0.0580
     43 H6        -19.2143   65.2475  -37.7261 H         1 C1P         0.0580
     44 H7        -18.3324   66.5614  -36.8760 H         1 C1P         0.0580
     45 H8        -16.1925   65.5772  -37.4531 H         1 C1P         0.0542
     46 H9        -17.2265   64.3189  -36.6951 H         1 C1P         0.0542
     47 H10       -15.3412   60.3780  -38.3015 H         1 C1P         0.0797
     48 H11       -16.2841   58.8038  -39.4827 H         1 C1P         0.1855
     49 H12       -19.2803   58.6913  -39.5782 H         1 C1P         0.0558
     50 H13       -19.1120   56.3450  -40.1116 H         1 C1P         0.0303
     51 H14       -18.2509   56.6781  -38.5707 H         1 C1P         0.0303
     52 H15       -16.4247   55.6009  -39.4410 H         1 C1P         0.0505
     53 H16       -16.2706   56.9260  -40.6439 H         1 C1P         0.0505
     54 H17       -17.0580   53.4988  -44.0793 H         1 C1P         0.0636
     55 H18       -14.9735   52.7777  -45.2873 H         1 C1P         0.0618
     56 H19       -12.7319   53.4748  -44.4753 H         1 C1P         0.0618
     57 H20       -12.5361   54.9186  -42.4736 H         1 C1P         0.0618
     58 H21       -14.5833   55.6638  -41.2462 H         1 C1P         0.0636
     59 H22       -18.8642   58.0670  -42.0299 H         1 C1P         0.0309
     60 H23       -17.1368   58.4846  -41.7680 H         1 C1P         0.0309
     61 H24       -17.8175   60.7696  -41.0900 H         1 C1P         0.0427
     62 H25       -19.5288   60.3414  -41.4290 H         1 C1P         0.0427
     63 H26       -20.3569   60.1484  -43.7478 H         1 C1P         0.0557
     64 H27       -20.0516   60.8522  -46.1376 H         1 C1P         0.0599
     65 H28       -17.8309   61.6998  -46.9163 H         1 C1P         0.0559
     66 H29       -15.9026   61.8562  -45.2990 H         1 C1P         0.0599
     67 H30       -16.2028   61.1439  -42.8990 H         1 C1P         0.0557
     68 H31       -15.6792   58.8305  -36.5222 H         1 C1P         0.0315
     69 H32       -16.9942   59.8271  -35.8120 H         1 C1P         0.0315
     70 H33       -15.5180   61.3701  -34.9346 H         1 C1P         0.0298
     71 H34       -13.1196   61.4545  -35.4713 H         1 C1P         0.0232
     72 H35       -14.1733   61.7377  -36.8982 H         1 C1P         0.0232
     73 H36       -13.3622   60.1496  -36.6817 H         1 C1P         0.0232
     74 H37       -15.6107   59.2831  -33.7671 H         1 C1P         0.0232
     75 H38       -14.0393   60.1305  -33.5695 H         1 C1P         0.0232
     76 H39       -14.1654   58.7175  -34.6714 H         1 C1P         0.0232
@<TRIPOS>BOND
     1    1    2 am 
     2    1   10 1  
     3    2    3 2  
     4    2    4 am 
     5    4    5 1  
     6    4    9 1  
     7    5    6 1  
     8    6    7 1  
     9    7    8 1  
    10    8    9 1  
    11   10   11 1  
    12   10   34 1  
    13   11   12 2  
    14   11   13 am 
    15   13   14 1  
    16   14   15 1  
    17   14   26 1  
    18   15   16 1  
    19   16   17 1  
    20   17   18 2  
    21   17   19 2  
    22   17   20 1  
    23   20   21 ar 
    24   20   25 ar 
    25   21   22 ar 
    26   22   23 ar 
    27   23   24 ar 
    28   24   25 ar 
    29   26   27 1  
    30   27   28 1  
    31   28   29 ar 
    32   28   33 ar 
    33   29   30 ar 
    34   30   31 ar 
    35   31   32 ar 
    36   32   33 ar 
    37   34   35 1  
    38   35   36 1  
    39   35   37 1  
    40    1   38 1  
    41    5   39 1  
    42    5   40 1  
    43    6   41 1  
    44    6   42 1  
    45    8   43 1  
    46    8   44 1  
    47    9   45 1  
    48    9   46 1  
    49   10   47 1  
    50   13   48 1  
    51   14   49 1  
    52   15   50 1  
    53   15   51 1  
    54   16   52 1  
    55   16   53 1  
    56   21   54 1  
    57   22   55 1  
    58   23   56 1  
    59   24   57 1  
    60   25   58 1  
    61   26   59 1  
    62   26   60 1  
    63   27   61 1  
    64   27   62 1  
    65   29   63 1  
    66   30   64 1  
    67   31   65 1  
    68   32   66 1  
    69   33   67 1  
    70   34   68 1  
    71   34   69 1  
    72   35   70 1  
    73   36   71 1  
    74   36   72 1  
    75   36   73 1  
    76   37   74 1  
    77   37   75 1  
    78   37   76 1  
@<TRIPOS>SUBSTRUCTURE
     1 C1P         1

