### 
### Created by X-TOOL on Mon Sep 10 21:12:50 2018
### 

@<TRIPOS>MOLECULE
1nq0_ligand
   29    30     1     0     0
SMALL
GAST_HUCK


@<TRIPOS>ATOM
      1 C1         53.9720   16.3470  114.4140 C.ar      1 4HY        -0.0345
      2 C2         54.5320   12.1600  117.3080 C.ar      1 4HY         0.1079
      3 C3         54.3770   16.4890  115.8110 C.ar      1 4HY        -0.0527
      4 C4         55.0680   11.5400  118.4120 C.ar      1 4HY        -0.0257
      5 C5         54.8850   15.3690  116.5070 C.ar      1 4HY         0.0383
      6 C6         54.3140   10.6790  119.1910 C.ar      1 4HY         0.0300
      7 C7         55.0050   14.1230  115.8820 C.ar      1 4HY         0.1290
      8 C8         52.9540   10.4180  118.8470 C.ar      1 4HY         0.0884
      9 C9         54.6250   13.9980  114.5120 C.ar      1 4HY         0.0383
     10 C10        52.3800   11.0570  117.7190 C.ar      1 4HY        -0.0376
     11 C11        54.0980   15.1420  113.7770 C.ar      1 4HY        -0.0527
     12 C12        53.1710   11.9330  116.9460 C.ar      1 4HY        -0.0340
     13 C13        53.3320   17.5050  113.7010 C.3       1 4HY         0.0299
     14 C14        54.2890   18.4950  112.9510 C.2       1 4HY         0.0448
     15 I1         55.5530   15.5570  118.5290 I         1 4HY        -0.0569
     16 I2         55.1600    9.8120  120.8890 I         1 4HY        -0.0593
     17 I3         54.9110   12.1250  113.5780 I         1 4HY        -0.0569
     18 O3         55.4420   18.0910  112.6690 O.co2     1 4HY        -0.5667
     19 O2         55.4110   12.9740  116.5570 O.3       1 4HY        -0.2643
     20 O1         52.2230    9.4940  119.6040 O.3       1 4HY        -0.3376
     21 O4         53.8180   19.6280  112.6840 O.co2     1 4HY        -0.5667
     22 H1         54.2883   17.4472  116.3100 H         1 4HY         0.0584
     23 H2         56.1018   11.7292  118.6778 H         1 4HY         0.0555
     24 H3         51.3450   10.8746  117.4535 H         1 4HY         0.0525
     25 H4         53.8091   15.0392  112.7373 H         1 4HY         0.0584
     26 H5         52.7468   12.4309  116.0816 H         1 4HY         0.0548
     27 H6         52.7721   18.0866  114.4482 H         1 4HY         0.0569
     28 H7         52.6330   17.0925  112.9585 H         1 4HY         0.0569
     29 H8         51.9605    8.7689  119.0492 H         1 4HY         0.2458
@<TRIPOS>BOND
     1    3    1 ar 
     2    1   11 ar 
     3    1   13 1  
     4    2    4 ar 
     5    2   12 ar 
     6   19    2 1  
     7    5    3 ar 
     8    4    6 ar 
     9    7    5 ar 
    10    5   15 1  
    11    6    8 ar 
    12    6   16 1  
    13    7    9 ar 
    14    7   19 1  
    15    8   10 ar 
    16    8   20 1  
    17    9   11 ar 
    18    9   17 1  
    19   10   12 ar 
    20   13   14 1  
    21   14   18 ar 
    22   14   21 ar 
    23    3   22 1  
    24    4   23 1  
    25   10   24 1  
    26   11   25 1  
    27   12   26 1  
    28   13   27 1  
    29   13   28 1  
    30   20   29 1  
@<TRIPOS>SUBSTRUCTURE
     1 4HY         1

