### 
### Created by X-TOOL on Mon Sep 10 21:12:50 2018
### 

@<TRIPOS>MOLECULE
1nq7_ligand
   56    56     1     0     0
SMALL
GAST_HUCK


@<TRIPOS>ATOM
      1 C16        29.4730   25.8200   10.5960 C.3       1 ARL        -0.0312
      2 C9         28.2120   25.0270   10.1460 C.2       1 ARL        -0.0548
      3 C13        27.1010   25.8300    9.5470 C.2       1 ARL        -0.0625
      4 C8         27.0650   27.1570    9.3530 C.2       1 ARL        -0.0686
      5 C44        25.9720   27.9480    8.7790 C.2       1 ARL        -0.0550
      6 C42        26.0390   29.1630    8.1030 C.2       1 ARL        -0.0144
      7 C7         27.4130   29.8680    7.8650 C.3       1 ARL        -0.0223
      8 C3         24.7640   29.8650    7.5910 C.ar      1 ARL         0.0456
      9 C4         23.4430   29.2410    7.6550 C.ar      1 ARL        -0.0027
     10 C5         22.2030   29.8970    7.1850 C.ar      1 ARL        -0.0136
     11 C6         22.3610   31.2370    6.6270 C.ar      1 ARL        -0.0124
     12 C1         23.6410   31.9390    6.5230 C.ar      1 ARL        -0.0136
     13 C2         24.8180   31.2110    7.0160 C.ar      1 ARL        -0.0027
     14 C10        23.7890   33.4010    5.9150 C.3       1 ARL        -0.0364
     15 C11        22.4540   34.1230    5.5530 C.3       1 ARL        -0.0822
     16 C15        24.6250   33.3620    4.6300 C.3       1 ARL        -0.0822
     17 C19        24.4790   34.3340    6.9430 C.3       1 ARL        -0.0822
     18 C23        20.7870   29.1800    7.2770 C.3       1 ARL        -0.0364
     19 C24        20.0370   29.0210    5.9380 C.3       1 ARL        -0.0822
     20 C28        19.8360   29.9690    8.1910 C.3       1 ARL        -0.0822
     21 C32        20.9070   27.7900    7.8860 C.3       1 ARL        -0.0822
     22 C14        28.0320   23.6710   10.2480 C.2       1 ARL        -0.0498
     23 C12        28.9430   22.6070   10.8000 C.2       1 ARL         0.0301
     24 O2         30.0230   22.8100   11.2630 O.co2     1 ARL        -0.5734
     25 O3         28.5350   21.4670   10.7540 O.co2     1 ARL        -0.5734
     26 H1         29.3265   26.8902   10.3883 H         1 ARL         0.0406
     27 H2         30.3516   25.4561   10.0432 H         1 ARL         0.0406
     28 H3         29.6322   25.6743   11.6746 H         1 ARL         0.0406
     29 H4         26.2197   25.2731    9.2321 H         1 ARL         0.0505
     30 H5         27.9514   27.7116    9.6575 H         1 ARL         0.0653
     31 H6         24.9739   27.5287    8.8974 H         1 ARL         0.0501
     32 H7         28.2201   29.2488    8.2836 H         1 ARL         0.0436
     33 H8         27.4112   30.8509    8.3588 H         1 ARL         0.0436
     34 H9         27.5750   30.0005    6.7851 H         1 ARL         0.0436
     35 H10        23.3682   28.2423    8.0699 H         1 ARL         0.1087
     36 H11        21.4734   31.7444    6.2667 H         1 ARL         0.1147
     37 H12        25.7837   31.6990    6.9503 H         1 ARL         0.1087
     38 H13        22.6755   35.1197    5.1438 H         1 ARL         0.0141
     39 H14        21.8364   34.2269    6.4573 H         1 ARL         0.0141
     40 H15        21.9090   33.5315    4.8027 H         1 ARL         0.0141
     41 H16        25.5829   32.8600    4.8309 H         1 ARL         0.0141
     42 H17        24.8146   34.3890    4.2846 H         1 ARL         0.0141
     43 H18        24.0772   32.8090    3.8528 H         1 ARL         0.0141
     44 H19        23.8832   34.3656    7.8671 H         1 ARL         0.0141
     45 H20        24.5582   35.3475    6.5230 H         1 ARL         0.0141
     46 H21        25.4852   33.9508    7.1684 H         1 ARL         0.0141
     47 H22        19.0757   28.5162    6.1139 H         1 ARL         0.0141
     48 H23        20.6454   28.4202    5.2460 H         1 ARL         0.0141
     49 H24        19.8552   30.0133    5.4995 H         1 ARL         0.0141
     50 H25        20.3111   30.1199    9.1716 H         1 ARL         0.0141
     51 H26        18.9000   29.4058    8.3199 H         1 ARL         0.0141
     52 H27        19.6164   30.9460    7.7358 H         1 ARL         0.0141
     53 H28        21.5805   27.1765    7.2695 H         1 ARL         0.0141
     54 H29        19.9136   27.3191    7.9236 H         1 ARL         0.0141
     55 H30        21.3137   27.8699    8.9049 H         1 ARL         0.0141
     56 H31        27.0784   23.3060    9.8695 H         1 ARL         0.0355
@<TRIPOS>BOND
     1    2    1 1  
     2    2    3 1  
     3    2   22 2  
     4    3    4 2  
     5    4    5 1  
     6    5    6 2  
     7    6    7 1  
     8    6    8 1  
     9    8    9 ar 
    10    8   13 ar 
    11    9   10 ar 
    12   10   11 ar 
    13   10   18 1  
    14   11   12 ar 
    15   12   13 ar 
    16   12   14 1  
    17   14   15 1  
    18   14   16 1  
    19   14   17 1  
    20   18   19 1  
    21   18   20 1  
    22   18   21 1  
    23   22   23 1  
    24   23   24 ar 
    25   23   25 ar 
    26    1   26 1  
    27    1   27 1  
    28    1   28 1  
    29    3   29 1  
    30    4   30 1  
    31    5   31 1  
    32    7   32 1  
    33    7   33 1  
    34    7   34 1  
    35    9   35 1  
    36   11   36 1  
    37   13   37 1  
    38   15   38 1  
    39   15   39 1  
    40   15   40 1  
    41   16   41 1  
    42   16   42 1  
    43   16   43 1  
    44   17   44 1  
    45   17   45 1  
    46   17   46 1  
    47   19   47 1  
    48   19   48 1  
    49   19   49 1  
    50   20   50 1  
    51   20   51 1  
    52   20   52 1  
    53   21   53 1  
    54   21   54 1  
    55   21   55 1  
    56   22   56 1  
@<TRIPOS>SUBSTRUCTURE
     1 ARL         1

