### 
### Created by X-TOOL on Mon Sep 10 21:12:50 2018
### 

@<TRIPOS>MOLECULE
1nqc_ligand
   61    63     1     0     0
SMALL
GAST_HUCK


@<TRIPOS>ATOM
      1 N43         2.1010   10.5570   49.8530 N.am      1 C4P        -0.2499
      2 C40         1.8820   10.4030   51.2240 C.2       1 C4P         0.2624
      3 O41         0.9900   11.0720   51.7920 O.2       1 C4P        -0.4005
      4 N1          2.6420    9.5170   51.9300 N.am      1 C4P        -0.2550
      5 C2          2.3870    9.3610   53.3900 C.3       1 C4P         0.0577
      6 C3          2.5330    7.8680   53.7470 C.3       1 C4P         0.0678
      7 O4          3.8240    7.3870   53.2530 O.3       1 C4P        -0.3758
      8 C5          3.8980    7.3260   51.8000 C.3       1 C4P         0.0678
      9 C6          3.6960    8.7480   51.1910 C.3       1 C4P         0.0577
     10 C44         1.2410   11.5010   49.1100 C.3       1 C4P         0.1408
     11 C45        -0.1270   10.8810   49.0090 C.2       1 C4P         0.2058
     12 O46        -0.2580    9.7350   48.6960 O.2       1 C4P        -0.3942
     13 N54        -1.1330   11.6990   49.2820 N.am      1 C4P        -0.2641
     14 C55        -2.5240   11.3310   49.2290 C.3       1 C4P         0.1218
     15 C56        -3.1600   11.2940   47.8490 C.2       1 C4P         0.1253
     16 O57        -4.3590   11.0310   47.6870 O.2       1 C4P        -0.3724
     17 C58        -3.2060   11.7230   50.5910 C.3       1 C4P         0.0348
     18 S1         -2.7020   10.4460   51.8120 S.3       1 C4P        -0.1422
     19 C1         -3.5510   10.9520   53.3430 C.3       1 C4P         0.0276
     20 C62        -5.0330   10.5970   53.0280 C.ar      1 C4P        -0.0332
     21 C67        -5.9860   11.6430   52.6760 C.ar      1 C4P        -0.0595
     22 C66        -7.3540   11.2970   52.3670 C.ar      1 C4P        -0.0685
     23 C65        -7.7790    9.9080   52.4090 C.ar      1 C4P        -0.0687
     24 C64        -6.8370    8.8710   52.7630 C.ar      1 C4P        -0.0685
     25 C63        -5.4690    9.2120   53.0710 C.ar      1 C4P        -0.0595
     26 C47         1.6870   11.7530   47.6500 C.3       1 C4P         0.0212
     27 C48         2.9500   12.5900   47.4580 C.ar      1 C4P        -0.0386
     28 C49         3.1750   13.7920   48.2370 C.ar      1 C4P        -0.0601
     29 C51         4.3720   14.5660   48.0310 C.ar      1 C4P        -0.0686
     30 C53         5.3440   14.1480   47.0490 C.ar      1 C4P        -0.0687
     31 C52         5.1180   12.9530   46.2780 C.ar      1 C4P        -0.0686
     32 C50         3.9230   12.1760   46.4840 C.ar      1 C4P        -0.0601
     33 H1          2.8205   10.0421   49.3870 H         1 C4P         0.1879
     34 H2          1.3693    9.7033   53.6291 H         1 C4P         0.0542
     35 H3          3.1169    9.9536   53.9610 H         1 C4P         0.0542
     36 H4          1.7207    7.2946   53.2766 H         1 C4P         0.0580
     37 H5          2.4855    7.7429   54.8388 H         1 C4P         0.0580
     38 H6          3.1121    6.6545   51.4238 H         1 C4P         0.0580
     39 H7          4.8839    6.9397   51.5021 H         1 C4P         0.0580
     40 H8          4.6462    9.2992   51.2472 H         1 C4P         0.0542
     41 H9          3.3926    8.6464   50.1386 H         1 C4P         0.0542
     42 H10         1.2008   12.4569   49.6528 H         1 C4P         0.0820
     43 H11        -0.9104   12.6383   49.5433 H         1 C4P         0.1885
     44 H12        -2.4588   10.2437   49.3826 H         1 C4P         0.0798
     45 H13        -2.5428   11.5051   46.9769 H         1 C4P         0.1374
     46 H14        -4.3003   11.7315   50.4796 H         1 C4P         0.0427
     47 H15        -2.8627   12.7162   50.9161 H         1 C4P         0.0427
     48 H16        -3.4297   12.0293   53.5293 H         1 C4P         0.0538
     49 H17        -3.1808   10.3859   54.2104 H         1 C4P         0.0538
     50 H18        -5.6683   12.6790   52.6462 H         1 C4P         0.0557
     51 H19        -8.0634   12.0733   52.1039 H         1 C4P         0.0599
     52 H20        -8.8051    9.6492   52.1742 H         1 C4P         0.0559
     53 H21        -7.1581    7.8362   52.7972 H         1 C4P         0.0599
     54 H22        -4.7643    8.4319   53.3354 H         1 C4P         0.0557
     55 H23         0.8635   12.2674   47.1330 H         1 C4P         0.0473
     56 H24         1.8604   10.7738   47.1798 H         1 C4P         0.0473
     57 H25         2.4440   14.1074   48.9727 H         1 C4P         0.0557
     58 H26         4.5432   15.4636   48.6141 H         1 C4P         0.0599
     59 H27         6.2430   14.7330   46.8922 H         1 C4P         0.0559
     60 H28         5.8483   12.6378   45.5415 H         1 C4P         0.0599
     61 H29         3.7567   11.2762   45.9028 H         1 C4P         0.0557
@<TRIPOS>BOND
     1    1    2 am 
     2    1   10 1  
     3    2    3 2  
     4    2    4 am 
     5    4    5 1  
     6    4    9 1  
     7    5    6 1  
     8    6    7 1  
     9    7    8 1  
    10    8    9 1  
    11   10   11 1  
    12   10   26 1  
    13   11   12 2  
    14   11   13 am 
    15   13   14 1  
    16   14   15 1  
    17   14   17 1  
    18   15   16 2  
    19   17   18 1  
    20   18   19 1  
    21   19   20 1  
    22   20   21 ar 
    23   20   25 ar 
    24   21   22 ar 
    25   22   23 ar 
    26   23   24 ar 
    27   24   25 ar 
    28   26   27 1  
    29   27   28 ar 
    30   27   32 ar 
    31   28   29 ar 
    32   29   30 ar 
    33   30   31 ar 
    34   31   32 ar 
    35    1   33 1  
    36    5   34 1  
    37    5   35 1  
    38    6   36 1  
    39    6   37 1  
    40    8   38 1  
    41    8   39 1  
    42    9   40 1  
    43    9   41 1  
    44   10   42 1  
    45   13   43 1  
    46   14   44 1  
    47   15   45 1  
    48   17   46 1  
    49   17   47 1  
    50   19   48 1  
    51   19   49 1  
    52   21   50 1  
    53   22   51 1  
    54   23   52 1  
    55   24   53 1  
    56   25   54 1  
    57   26   55 1  
    58   26   56 1  
    59   28   57 1  
    60   29   58 1  
    61   30   59 1  
    62   31   60 1  
    63   32   61 1  
@<TRIPOS>SUBSTRUCTURE
     1 C4P         1

