### 
### Created by X-TOOL on Mon Sep 10 21:12:50 2018
### 

@<TRIPOS>MOLECULE
1nt1_ligand
   68    71     1     0     0
SMALL
GAST_HUCK


@<TRIPOS>ATOM
      1 C1         13.3050  -11.3460   21.9390 C.ar      1 T76         0.0092
      2 C2         12.6100  -12.4750   22.3290 C.ar      1 T76         0.0983
      3 C3         11.6610  -12.4160   23.3870 C.ar      1 T76        -0.0386
      4 C4         11.4900  -11.2300   24.1020 C.ar      1 T76        -0.0636
      5 C5         12.2810  -10.1200   23.7820 C.ar      1 T76         0.0219
      6 C6         13.1730  -10.1610   22.6800 C.ar      1 T76        -0.0530
      7 C7         14.1440  -11.3850   20.6840 C.3       1 T76         0.0629
      8 N8         15.5830  -11.5230   20.9480 N.am      1 T76        -0.2755
      9 C9         16.1920  -12.7050   20.6640 C.2       1 T76         0.2035
     10 C10        17.6880  -12.7240   20.8980 C.3       1 T76         0.1338
     11 O11        15.6200  -13.7450   20.3220 O.2       1 T76        -0.3944
     12 O12        12.9140  -13.6870   21.7050 O.3       1 T76        -0.3009
     13 C18        18.4400  -12.8770   19.5630 C.3       1 T76        -0.0104
     14 C19        19.7640  -13.5550   19.9390 C.3       1 T76        -0.0281
     15 C20        19.2630  -14.5920   20.9510 C.3       1 T76         0.0369
     16 N21        18.1110  -13.9590   21.5710 N.am      1 T76        -0.2498
     17 C29        17.4450  -14.3920   22.6690 C.2       1 T76         0.2067
     18 C30        17.9410  -15.7110   23.2370 C.3       1 T76         0.1339
     19 N31        16.8250  -16.6570   23.2880 N.am      1 T76        -0.2653
     20 C32        16.6220  -17.3810   22.1570 C.2       1 T76         0.1802
     21 O33        17.4440  -17.4820   21.2250 O.2       1 T76        -0.3969
     22 C34        15.2330  -17.9950   22.0630 C.3       1 T76         0.0575
     23 C35        14.4690  -17.3110   20.9130 C.3       1 T76         0.0477
     24 N38        13.9290  -15.9920   21.3100 N.am      1 T76        -0.2825
     25 C41        12.7000  -16.0430   21.8690 C.2       1 T76         0.2068
     26 O42        12.0520  -17.0770   22.0300 O.2       1 T76        -0.3941
     27 C43        12.1630  -14.7150   22.3090 C.3       1 T76         0.1574
     28 O44        16.4310  -13.8520   23.1320 O.2       1 T76        -0.3942
     29 C45        18.5290  -15.4530   24.6390 C.3       1 T76        -0.0006
     30 C47        18.7960  -16.7530   25.4060 C.3       1 T76        -0.0460
     31 C48        19.4010  -16.4530   26.7880 C.3       1 T76        -0.0526
     32 C49        20.6980  -15.6420   26.6280 C.3       1 T76        -0.0530
     33 C50        20.4210  -14.3300   25.8830 C.3       1 T76        -0.0526
     34 C51        19.8080  -14.6210   24.5140 C.3       1 T76        -0.0460
     35 CL68       12.1860   -8.7050   24.7850 Cl        1 T76        -0.0828
     36 H1         11.0718  -13.2908   23.6373 H         1 T76         0.0522
     37 H2         10.7539  -11.1688   24.8954 H         1 T76         0.0538
     38 H3         13.7491   -9.2829   22.4117 H         1 T76         0.0532
     39 H4         13.9799  -10.4515   20.1257 H         1 T76         0.0660
     40 H5         13.8181  -12.2397   20.0731 H         1 T76         0.0660
     41 H6         16.1054  -10.7606   21.3300 H         1 T76         0.1875
     42 H7         17.9954  -11.8241   21.4509 H         1 T76         0.0802
     43 H8         18.6237  -11.8934   19.1060 H         1 T76         0.0313
     44 H9         17.8672  -13.5047   18.8645 H         1 T76         0.0313
     45 H10        20.4685  -12.8458   20.3980 H         1 T76         0.0287
     46 H11        20.2386  -14.0319   19.0688 H         1 T76         0.0287
     47 H12        20.0377  -14.8114   21.7005 H         1 T76         0.0524
     48 H13        18.9701  -15.5227   20.4431 H         1 T76         0.0524
     49 H14        18.7282  -16.1201   22.5866 H         1 T76         0.0803
     50 H15        16.2513  -16.7629   24.1002 H         1 T76         0.1883
     51 H16        14.6944  -17.8396   23.0095 H         1 T76         0.0522
     52 H17        15.3174  -19.0731   21.8619 H         1 T76         0.0522
     53 H18        13.6340  -17.9586   20.6074 H         1 T76         0.0545
     54 H19        15.1551  -17.1724   20.0645 H         1 T76         0.0545
     55 H20        14.4301  -15.1370   21.1762 H         1 T76         0.1853
     56 H21        11.1090  -14.6264   22.0071 H         1 T76         0.0856
     57 H22        12.2393  -14.6319   23.4032 H         1 T76         0.0856
     58 H23        17.7938  -14.8704   25.2134 H         1 T76         0.0348
     59 H24        19.4988  -17.3739   24.8311 H         1 T76         0.0270
     60 H25        17.8487  -17.2965   25.5366 H         1 T76         0.0270
     61 H26        19.6242  -17.3998   27.3016 H         1 T76         0.0265
     62 H27        18.6801  -15.8738   27.3836 H         1 T76         0.0265
     63 H28        21.4281  -16.2351   26.0578 H         1 T76         0.0265
     64 H29        21.1078  -15.4140   27.6230 H         1 T76         0.0265
     65 H30        21.3651  -13.7815   25.7494 H         1 T76         0.0265
     66 H31        19.7217  -13.7183   26.4718 H         1 T76         0.0265
     67 H32        19.5680  -13.6681   24.0197 H         1 T76         0.0270
     68 H33        20.5377  -15.1759   23.9060 H         1 T76         0.0270
@<TRIPOS>BOND
     1    1    2 ar 
     2    1    6 ar 
     3    1    7 1  
     4    2    3 ar 
     5    2   12 1  
     6    3    4 ar 
     7    4    5 ar 
     8    5    6 ar 
     9    5   35 1  
    10    7    8 1  
    11    8    9 am 
    12    9   10 1  
    13    9   11 2  
    14   10   13 1  
    15   10   16 1  
    16   12   27 1  
    17   13   14 1  
    18   14   15 1  
    19   15   16 1  
    20   16   17 am 
    21   17   18 1  
    22   17   28 2  
    23   18   19 1  
    24   18   29 1  
    25   19   20 am 
    26   20   21 2  
    27   20   22 1  
    28   22   23 1  
    29   23   24 1  
    30   24   25 am 
    31   25   26 2  
    32   25   27 1  
    33   29   30 1  
    34   29   34 1  
    35   30   31 1  
    36   31   32 1  
    37   32   33 1  
    38   33   34 1  
    39    3   36 1  
    40    4   37 1  
    41    6   38 1  
    42    7   39 1  
    43    7   40 1  
    44    8   41 1  
    45   10   42 1  
    46   13   43 1  
    47   13   44 1  
    48   14   45 1  
    49   14   46 1  
    50   15   47 1  
    51   15   48 1  
    52   18   49 1  
    53   19   50 1  
    54   22   51 1  
    55   22   52 1  
    56   23   53 1  
    57   23   54 1  
    58   24   55 1  
    59   27   56 1  
    60   27   57 1  
    61   29   58 1  
    62   30   59 1  
    63   30   60 1  
    64   31   61 1  
    65   31   62 1  
    66   32   63 1  
    67   32   64 1  
    68   33   65 1  
    69   33   66 1  
    70   34   67 1  
    71   34   68 1  
@<TRIPOS>SUBSTRUCTURE
     1 T76         1

