### 
### Created by X-TOOL on Mon Sep 10 21:12:50 2018
### 

@<TRIPOS>MOLECULE
1ntk_ligand
   76    77     1     0     0
SMALL
GAST_HUCK


@<TRIPOS>ATOM
      1 C1         56.7790   67.7760  141.0210 C.2       1 AY1         0.1943
      2 C2         59.1030   68.6200  141.0450 C.2       1 AY1         0.1084
      3 C3         59.6250   67.9830  139.9210 C.2       1 AY1        -0.0384
      4 C5         61.8200   69.0310  140.2770 C.2       1 AY1        -0.0243
      5 O5         66.3670   73.8050  143.0130 O.2       1 AY1        -0.3700
      6 C6         61.3330   69.6870  141.3860 C.2       1 AY1         0.0953
      7 C7         59.9560   69.4780  141.7840 C.2       1 AY1         0.1540
      8 C8         62.0890   70.6050  142.2640 C.2       1 AY1         0.1964
      9 C9         64.1650   71.9330  142.7510 C.3       1 AY1         0.1716
     10 O9         68.6450   73.2180  146.6380 O.2       1 AY1        -0.3701
     11 C11        62.0560   73.5710  142.6060 C.3       1 AY1        -0.0297
     12 C12        65.4880   74.1040  143.7880 C.2       1 AY1         0.2403
     13 C13        65.5800   74.3110  145.2600 C.3       1 AY1         0.0933
     14 C14        66.2800   73.0770  145.9100 C.3       1 AY1         0.1383
     15 C4         60.9660   68.1820  139.5580 C.3       1 AY1         0.0126
     16 N1         57.8480   68.5510  141.5600 N.am      1 AY1        -0.2388
     17 N2         63.3630   70.9060  142.0660 N.am      1 AY1        -0.2652
     18 O1         56.9790   67.1230  140.0400 O.2       1 AY1        -0.3722
     19 O2         59.4680   70.0210  142.7640 O.2       1 AY1        -0.4069
     20 O3         61.4510   71.0620  143.1960 O.2       1 AY1        -0.3981
     21 C10        63.5600   73.3640  142.4150 C.3       1 AY1         0.1258
     22 O4         64.1790   74.3210  143.3750 O.3       1 AY1        -0.2686
     23 O6         65.1080   71.4050  144.8300 O.3       1 AY1        -0.2688
     24 C15        65.1890   71.9250  146.2560 C.3       1 AY1         0.1178
     25 C16        65.7860   70.8390  147.1440 C.3       1 AY1        -0.0312
     26 C17        63.9270   71.6550  144.2260 C.2       1 AY1         0.2628
     27 C18        66.5370   75.5310  145.5050 C.3       1 AY1        -0.0290
     28 C19        66.0660   76.7850  144.7520 C.3       1 AY1        -0.0505
     29 C20        64.6430   77.1810  145.2010 C.3       1 AY1        -0.0529
     30 O7         62.8850   71.7440  144.8350 O.2       1 AY1        -0.3677
     31 O8         66.4950   73.5990  147.2880 O.3       1 AY1        -0.2675
     32 C21        64.5680   78.5550  145.8830 C.3       1 AY1        -0.0533
     33 C22        64.2750   78.4350  147.3830 C.3       1 AY1        -0.0559
     34 C23        65.4420   78.9440  148.2390 C.3       1 AY1        -0.0653
     35 C24        67.9040   73.5640  147.5470 C.2       1 AY1         0.2368
     36 C25        68.4230   73.9620  148.8870 C.3       1 AY1         0.0544
     37 C26        69.8960   73.5670  148.9350 C.3       1 AY1        -0.0443
     38 C27        68.1940   75.4740  149.0480 C.3       1 AY1        -0.0443
     39 H1         55.7984   67.7791  141.4946 H         1 AY1         0.1607
     40 H2         58.9913   67.3296  139.3232 H         1 AY1         0.0478
     41 H3         62.8535   69.1696  139.9630 H         1 AY1         0.0998
     42 H4         65.2300   71.8759  142.4817 H         1 AY1         0.0845
     43 H5         61.7906   74.6034  142.3346 H         1 AY1         0.0260
     44 H6         61.7915   73.3889  143.6581 H         1 AY1         0.0260
     45 H7         61.5047   72.8696  141.9626 H         1 AY1         0.0260
     46 H8         64.5851   74.4817  145.6970 H         1 AY1         0.0584
     47 H9         67.1680   72.7204  145.3676 H         1 AY1         0.0709
     48 H10        60.9506   68.5649  138.5269 H         1 AY1         0.0681
     49 H11        61.4380   67.1886  139.5732 H         1 AY1         0.0681
     50 H12        57.6585   69.0865  142.3830 H         1 AY1         0.2232
     51 H13        63.8377   70.3713  141.3669 H         1 AY1         0.1868
     52 H14        63.8234   73.6157  141.3771 H         1 AY1         0.0697
     53 H15        64.2417   72.3058  146.6654 H         1 AY1         0.0678
     54 H16        65.0209   70.0780  147.3572 H         1 AY1         0.0259
     55 H17        66.1316   71.2859  148.0878 H         1 AY1         0.0259
     56 H18        66.6362   70.3694  146.6277 H         1 AY1         0.0259
     57 H19        67.5472   75.2664  145.1593 H         1 AY1         0.0294
     58 H20        66.5642   75.7517  146.5823 H         1 AY1         0.0294
     59 H21        66.0605   76.5781  143.6717 H         1 AY1         0.0267
     60 H22        66.7564   77.6149  144.9629 H         1 AY1         0.0267
     61 H23        64.2790   76.4221  145.9092 H         1 AY1         0.0265
     62 H24        63.9918   77.1978  144.3147 H         1 AY1         0.0265
     63 H25        63.7674   79.1431  145.4105 H         1 AY1         0.0265
     64 H26        65.5301   79.0712  145.7491 H         1 AY1         0.0265
     65 H27        64.0913   77.3779  147.6255 H         1 AY1         0.0263
     66 H28        63.3778   79.0264  147.6181 H         1 AY1         0.0263
     67 H29        65.1884   78.8391  149.3042 H         1 AY1         0.0230
     68 H30        65.6304   80.0032  148.0096 H         1 AY1         0.0230
     69 H31        66.3439   78.3547  148.0171 H         1 AY1         0.0230
     70 H32        67.8794   73.4292  149.6811 H         1 AY1         0.0548
     71 H33        70.3184   73.8448  149.9119 H         1 AY1         0.0258
     72 H34        70.4424   74.0910  148.1370 H         1 AY1         0.0258
     73 H35        69.9892   72.4805  148.7908 H         1 AY1         0.0258
     74 H36        67.1160   75.6883  149.0042 H         1 AY1         0.0258
     75 H37        68.7078   76.0111  148.2371 H         1 AY1         0.0258
     76 H38        68.5943   75.8043  150.0179 H         1 AY1         0.0258
@<TRIPOS>BOND
     1   16    1 am 
     2    1   18 2  
     3    2    3 2  
     4    7    2 1  
     5    2   16 1  
     6   15    3 1  
     7    6    4 2  
     8    4   15 1  
     9   12    5 2  
    10    6    7 1  
    11    8    6 1  
    12    7   19 2  
    13   17    8 am 
    14    8   20 2  
    15    9   17 1  
    16    9   21 1  
    17   26    9 1  
    18   35   10 2  
    19   21   11 1  
    20   13   12 1  
    21   12   22 1  
    22   14   13 1  
    23   13   27 1  
    24   14   24 1  
    25   31   14 1  
    26   22   21 1  
    27   24   23 1  
    28   23   26 1  
    29   24   25 1  
    30   26   30 2  
    31   27   28 1  
    32   28   29 1  
    33   29   32 1  
    34   31   35 1  
    35   32   33 1  
    36   33   34 1  
    37   35   36 1  
    38   36   37 1  
    39   36   38 1  
    40    1   39 1  
    41    3   40 1  
    42    4   41 1  
    43    9   42 1  
    44   11   43 1  
    45   11   44 1  
    46   11   45 1  
    47   13   46 1  
    48   14   47 1  
    49   15   48 1  
    50   15   49 1  
    51   16   50 1  
    52   17   51 1  
    53   21   52 1  
    54   24   53 1  
    55   25   54 1  
    56   25   55 1  
    57   25   56 1  
    58   27   57 1  
    59   27   58 1  
    60   28   59 1  
    61   28   60 1  
    62   29   61 1  
    63   29   62 1  
    64   32   63 1  
    65   32   64 1  
    66   33   65 1  
    67   33   66 1  
    68   34   67 1  
    69   34   68 1  
    70   34   69 1  
    71   36   70 1  
    72   37   71 1  
    73   37   72 1  
    74   37   73 1  
    75   38   74 1  
    76   38   75 1  
    77   38   76 1  
@<TRIPOS>SUBSTRUCTURE
     1 AY1         1

