### 
### Created by X-TOOL on Fri Sep 26 17:34:22 2014
### 

@<TRIPOS>MOLECULE
1nu3_ligand
   27    26     1     0     0
SMALL
GAST_HUCK


@<TRIPOS>ATOM
      1 C5         15.7670   21.0810    5.8720 C.3       1 VPR        -0.0651
      2 C4         16.5030   21.7220    6.9990 C.3       1 VPR        -0.0536
      3 C3         15.7100   21.9580    8.2650 C.3       1 VPR        -0.0335
      4 C2         16.0740   23.2290    9.0290 C.3       1 VPR         0.0484
      5 C3A        17.5730   23.4160    9.1660 C.3       1 VPR        -0.0335
      6 C4A        17.8810   24.6710    9.9690 C.3       1 VPR        -0.0536
      7 C5A        19.2900   25.2080    9.8090 C.3       1 VPR        -0.0651
      8 C1         15.3560   23.3260   10.3780 C.2       1 VPR         0.1766
      9 N          15.7980   22.7500   11.5260 N.am      1 VPR        -0.3006
     10 O          14.3600   24.0210   10.4190 O.2       1 VPR        -0.3970
     11 H1         16.4435   20.9622    5.0128 H         1 VPR         0.0230
     12 H2         14.9152   21.7141    5.5831 H         1 VPR         0.0230
     13 H3         15.3994   20.0937    6.1885 H         1 VPR         0.0230
     14 H4         16.8723   22.6967    6.6476 H         1 VPR         0.0264
     15 H5         17.3566   21.0763    7.2530 H         1 VPR         0.0264
     16 H6         15.8723   21.1000    8.9339 H         1 VPR         0.0292
     17 H7         14.6453   22.0159    7.9946 H         1 VPR         0.0292
     18 H8         15.7099   24.0706    8.4214 H         1 VPR         0.0538
     19 H9         18.0196   23.5079    8.1649 H         1 VPR         0.0292
     20 H10        18.0015   22.5429    9.6800 H         1 VPR         0.0292
     21 H11        17.7226   24.4420   11.0332 H         1 VPR         0.0264
     22 H12        17.1790   25.4574    9.6547 H         1 VPR         0.0264
     23 H13        19.4107   26.1105   10.4262 H         1 VPR         0.0230
     24 H14        19.4690   25.4593    8.7532 H         1 VPR         0.0230
     25 H15        20.0125   24.4439   10.1316 H         1 VPR         0.0230
     26 H16        15.2755   22.8560   12.3720 H         1 VPR         0.1814
     27 H17        16.6460   22.2199   11.5252 H         1 VPR         0.1814
@<TRIPOS>BOND
     1    1    2 1  
     2    2    3 1  
     3    3    4 1  
     4    4    5 1  
     5    4    8 1  
     6    5    6 1  
     7    6    7 1  
     8    8    9 am 
     9    8   10 2  
    10    1   11 1  
    11    1   12 1  
    12    1   13 1  
    13    2   14 1  
    14    2   15 1  
    15    3   16 1  
    16    3   17 1  
    17    4   18 1  
    18    5   19 1  
    19    5   20 1  
    20    6   21 1  
    21    6   22 1  
    22    7   23 1  
    23    7   24 1  
    24    7   25 1  
    25    9   26 1  
    26    9   27 1  
@<TRIPOS>SUBSTRUCTURE
     1 VPR         1

