### 
### Created by X-TOOL on Mon Sep 10 21:12:50 2018
### 

@<TRIPOS>MOLECULE
1nu8_ligand
   58    58     1     0     0
SMALL
GAST_HUCK


@<TRIPOS>ATOM
      1 N          64.3840   73.9810   69.2100 N.4       1 ILE         0.2381
      2 CA         65.7640   73.4560   69.1910 C.3       1 ILE         0.0676
      3 C          65.7780   72.0970   68.4740 C.2       1 ILE         0.2277
      4 O          65.0510   71.1730   68.8830 O.2       1 ILE        -0.3907
      5 CB         66.3130   73.2970   70.6330 C.3       1 ILE         0.0164
      6 CG1        66.1200   74.5790   71.4490 C.3       1 ILE        -0.0460
      7 CG2        67.7790   72.8950   70.6060 C.3       1 ILE        -0.0551
      8 CD1        66.4390   74.4340   72.9500 C.3       1 ILE        -0.0647
      9 N          66.6090   71.9670   67.4380 N.am      1 PRO        -0.2576
     10 CA         66.6670   70.7270   66.6340 C.3       1 PRO         0.1136
     11 C          67.4330   69.4950   67.1130 C.3       1 PRO         0.1053
     12 O          68.7420   69.5610   67.4480 O.3       1 PRO        -0.3507
     13 CB         67.4580   71.1530   65.4180 C.3       1 PRO        -0.0200
     14 CG         68.3930   72.2210   65.9390 C.3       1 PRO        -0.0301
     15 CD         67.6510   72.9290   67.0220 C.3       1 PRO         0.0348
     16 N          66.4960   69.0400   68.1510 N.4       1 ILE         0.2646
     17 CA         66.9020   67.9490   69.0320 C.3       1 ILE         0.0353
     18 C          65.7190   67.0690   69.4870 C.2       1 ILE         0.0848
     19 O          64.7620   67.5710   70.0860 O.co2     1 ILE        -0.5642
     20 CB         67.7540   68.4200   70.3030 C.3       1 ILE         0.0111
     21 CG1        67.6310   67.4220   71.4840 C.3       1 ILE        -0.0466
     22 CG2        67.3350   69.7690   70.7880 C.3       1 ILE        -0.0557
     23 CD1        68.9270   67.2260   72.2750 C.3       1 ILE        -0.0647
     24 OXT        65.7170   65.8420   69.2880 O.co2     1 ILE        -0.5642
     25 H1         64.0477   74.0762   68.2645 H         1 ILE         0.2015
     26 H2         64.3733   74.8815   69.6627 H         1 ILE         0.2015
     27 H3         63.7889   73.3436   69.7156 H         1 ILE         0.2015
     28 H4         66.4067   74.1601   68.6422 H         1 ILE         0.1101
     29 H5         65.7466   72.4928   71.1253 H         1 ILE         0.0378
     30 H6         65.0712   74.8953   71.3495 H         1 ILE         0.0269
     31 H7         66.7782   75.3549   71.0311 H         1 ILE         0.0269
     32 H8         67.8958   71.9739   70.0161 H         1 ILE         0.0236
     33 H9         68.1300   72.7193   71.6336 H         1 ILE         0.0236
     34 H10        68.3718   73.7008   70.1487 H         1 ILE         0.0236
     35 H11        66.2737   75.3973   73.4547 H         1 ILE         0.0230
     36 H12        67.4890   74.1305   73.0741 H         1 ILE         0.0230
     37 H13        65.7819   73.6708   73.3925 H         1 ILE         0.0230
     38 H14        65.6394   70.4248   66.3837 H         1 PRO         0.0642
     39 H15        67.4119   68.7630   66.2922 H         1 PRO         0.1208
     40 H16        68.8522   70.1653   68.1727 H         1 PRO         0.2155
     41 H17        66.7925   71.5614   64.6431 H         1 PRO         0.0291
     42 H18        68.0251   70.3058   65.0050 H         1 PRO         0.0291
     43 H19        68.6561   72.9235   65.1345 H         1 PRO         0.0285
     44 H20        69.3092   71.7634   66.3404 H         1 PRO         0.0285
     45 H21        68.3202   73.1665   67.8621 H         1 PRO         0.0522
     46 H22        67.1966   73.8558   66.6417 H         1 PRO         0.0522
     47 H23        65.6540   68.7449   67.6820 H         1 ILE         0.2059
     48 H24        66.2934   69.8348   68.7369 H         1 ILE         0.2059
     49 H25        67.5632   67.3061   68.4324 H         1 ILE         0.1028
     50 H26        68.8097   68.4716   69.9984 H         1 ILE         0.0371
     51 H27        67.3216   66.4464   71.0809 H         1 ILE         0.0268
     52 H28        66.8592   67.7956   72.1729 H         1 ILE         0.0268
     53 H29        67.4141   70.4952   69.9656 H         1 ILE         0.0235
     54 H30        67.9887   70.0803   71.6161 H         1 ILE         0.0235
     55 H31        66.2936   69.7252   71.1395 H         1 ILE         0.0235
     56 H32        68.7542   66.5074   73.0897 H         1 ILE         0.0230
     57 H33        69.2478   68.1895   72.6979 H         1 ILE         0.0230
     58 H34        69.7102   66.8402   71.6059 H         1 ILE         0.0230
@<TRIPOS>BOND
     1    1    2 1  
     2    2    3 1  
     3    2    5 1  
     4    3    4 2  
     5    3    9 am 
     6    5    6 1  
     7    5    7 1  
     8    6    8 1  
     9    9   10 1  
    10    9   15 1  
    11   10   11 1  
    12   10   13 1  
    13   11   12 1  
    14   11   16 1  
    15   13   14 1  
    16   14   15 1  
    17   16   17 1  
    18   17   18 1  
    19   17   20 1  
    20   18   19 ar 
    21   18   24 ar 
    22   20   21 1  
    23   20   22 1  
    24   21   23 1  
    25    1   25 1  
    26    1   26 1  
    27    1   27 1  
    28    2   28 1  
    29    5   29 1  
    30    6   30 1  
    31    6   31 1  
    32    7   32 1  
    33    7   33 1  
    34    7   34 1  
    35    8   35 1  
    36    8   36 1  
    37    8   37 1  
    38   10   38 1  
    39   11   39 1  
    40   12   40 1  
    41   13   41 1  
    42   13   42 1  
    43   14   43 1  
    44   14   44 1  
    45   15   45 1  
    46   15   46 1  
    47   16   47 1  
    48   16   48 1  
    49   17   49 1  
    50   20   50 1  
    51   21   51 1  
    52   21   52 1  
    53   22   53 1  
    54   22   54 1  
    55   22   55 1  
    56   23   56 1  
    57   23   57 1  
    58   23   58 1  
@<TRIPOS>SUBSTRUCTURE
     1 ILE         1

