### 
### Created by X-TOOL on Mon Sep 10 21:12:50 2018
### 

@<TRIPOS>MOLECULE
1nvq_ligand
   63    70     1     0     0
SMALL
GAST_HUCK


@<TRIPOS>ATOM
      1 O37         8.2700    9.9540   17.2910 O.3       1 UCN        -0.3582
      2 C9          7.7630    9.3100   18.4550 C.3       1 UCN         0.1708
      3 N1          6.9180   10.1940   19.2270 N.am      1 UCN        -0.2534
      4 C8          5.6270    9.8480   19.3640 C.2       1 UCN         0.1891
      5 O5          4.7470   10.4480   19.9630 O.2       1 UCN        -0.3964
      6 C7          5.5330    8.5650   18.6030 C.ar      1 UCN         0.0346
      7 C6          4.3050    7.7170   18.4090 C.ar      1 UCN        -0.0017
      8 C5          2.9460    7.7620   18.7970 C.ar      1 UCN        -0.0071
      9 C20         2.3100    6.5900   18.2270 C.ar      1 UCN         0.0681
     10 C1          0.9100    6.3140   18.4170 C.ar      1 UCN        -0.0404
     11 C2          0.1610    7.2210   19.1810 C.ar      1 UCN        -0.0732
     12 C3          0.7890    8.3860   19.7510 C.ar      1 UCN        -0.0750
     13 C4          2.1380    8.6360   19.5570 C.ar      1 UCN        -0.0685
     14 N3          3.2490    5.8750   17.5380 N.pl3     1 UCN        -0.2376
     15 C19         4.5220    6.5310   17.6060 C.ar      1 UCN         0.0952
     16 C18         5.7570    6.2170   17.0610 C.ar      1 UCN         0.0979
     17 N2          6.2140    5.1320   16.2200 N.pl3     1 UCN        -0.2292
     18 C17         7.6060    5.2810   15.9270 C.ar      1 UCN         0.0695
     19 C12         8.0400    6.4960   16.5930 C.ar      1 UCN        -0.0074
     20 C13         9.3880    6.8940   16.4620 C.ar      1 UCN        -0.0696
     21 C14        10.3170    6.1570   15.7160 C.ar      1 UCN        -0.0759
     22 C15         9.8520    4.9520   15.0620 C.ar      1 UCN        -0.0739
     23 C16         8.5300    4.5440   15.1750 C.ar      1 UCN        -0.0408
     24 C11         6.9290    7.0700   17.2760 C.ar      1 UCN         0.0037
     25 C10         6.7180    8.2500   18.0830 C.ar      1 UCN         0.0127
     26 C21         5.2030    4.0730   15.7860 C.3       1 UCN         0.2020
     27 O4          4.3030    3.8480   16.8550 O.3       1 UCN        -0.3149
     28 C25         3.0380    4.4870   17.0640 C.3       1 UCN         0.1668
     29 C24         2.2520    4.5570   15.6950 C.3       1 UCN         0.0455
     30 C23         3.0440    3.9210   14.5170 C.3       1 UCN         0.0141
     31 N4          2.1780    4.1690   13.2170 N.4       1 UCN         0.2291
     32 C28         2.8230    3.5400   12.0170 C.3       1 UCN        -0.0445
     33 C22         4.4980    4.5210   14.4210 C.3       1 UCN         0.1556
     34 O6          4.3430    5.9660   14.3770 O.3       1 UCN        -0.3686
     35 C27         5.1750    6.5710   13.3990 C.3       1 UCN         0.0373
     36 C26         5.8590    2.7140   15.5650 C.3       1 UCN        -0.0059
     37 H1          7.5453   10.2315   16.7429 H         1 UCN         0.2154
     38 H2          8.5915    8.8964   19.0488 H         1 UCN         0.1031
     39 H3          7.2799   11.0288   19.6420 H         1 UCN         0.1889
     40 H4          0.4495    5.4336   17.9836 H         1 UCN         0.0539
     41 H5         -0.8961    7.0446   19.3436 H         1 UCN         0.0568
     42 H6          0.1973    9.0771   20.3403 H         1 UCN         0.0516
     43 H7          2.5824    9.5210   19.9978 H         1 UCN         0.0576
     44 H8          9.7158    7.8016   16.9559 H         1 UCN         0.0566
     45 H9         11.3489    6.4781   15.6313 H         1 UCN         0.0516
     46 H10        10.5458    4.3602   14.4760 H         1 UCN         0.0561
     47 H11         8.2070    3.6394   14.6726 H         1 UCN         0.0538
     48 H12         2.4550    3.9209   17.8054 H         1 UCN         0.0933
     49 H13         2.0531    5.6123   15.4566 H         1 UCN         0.0372
     50 H14         1.2984    4.0206   15.8085 H         1 UCN         0.0372
     51 H15         3.1351    2.8374   14.6826 H         1 UCN         0.0880
     52 H16         2.0907    5.1613   13.0628 H         1 UCN         0.2014
     53 H17         1.2628    3.7675   13.3483 H         1 UCN         0.2014
     54 H18         2.2029    3.7261   11.1277 H         1 UCN         0.0777
     55 H19         2.9177    2.4559   12.1776 H         1 UCN         0.0777
     56 H20         3.8211    3.9769   11.8659 H         1 UCN         0.0777
     57 H21         5.0473    4.1531   13.5419 H         1 UCN         0.0710
     58 H22         5.0190    7.6598   13.4078 H         1 UCN         0.0524
     59 H23         4.9224    6.1724   12.4054 H         1 UCN         0.0524
     60 H24         6.2283    6.3497   13.6260 H         1 UCN         0.0524
     61 H25         5.0962    1.9848   15.2547 H         1 UCN         0.0284
     62 H26         6.3290    2.3772   16.5008 H         1 UCN         0.0284
     63 H27         6.6249    2.7998   14.7801 H         1 UCN         0.0284
@<TRIPOS>BOND
     1    2    1 1  
     2    2    3 1  
     3    2   25 1  
     4    3    4 am 
     5    4    5 2  
     6    4    6 1  
     7    6    7 ar 
     8   25    6 ar 
     9    7    8 1  
    10    7   15 ar 
    11    8    9 ar 
    12    8   13 ar 
    13    9   10 ar 
    14    9   14 1  
    15   10   11 ar 
    16   11   12 ar 
    17   13   12 ar 
    18   14   15 1  
    19   14   28 1  
    20   15   16 ar 
    21   16   17 1  
    22   16   24 ar 
    23   17   18 1  
    24   17   26 1  
    25   18   19 ar 
    26   18   23 ar 
    27   19   20 ar 
    28   19   24 1  
    29   20   21 ar 
    30   21   22 ar 
    31   23   22 ar 
    32   24   25 ar 
    33   26   27 1  
    34   26   33 1  
    35   26   36 1  
    36   27   28 1  
    37   28   29 1  
    38   29   30 1  
    39   30   31 1  
    40   33   30 1  
    41   31   32 1  
    42   33   34 1  
    43   34   35 1  
    44    1   37 1  
    45    2   38 1  
    46    3   39 1  
    47   10   40 1  
    48   11   41 1  
    49   12   42 1  
    50   13   43 1  
    51   20   44 1  
    52   21   45 1  
    53   22   46 1  
    54   23   47 1  
    55   28   48 1  
    56   29   49 1  
    57   29   50 1  
    58   30   51 1  
    59   31   52 1  
    60   31   53 1  
    61   32   54 1  
    62   32   55 1  
    63   32   56 1  
    64   33   57 1  
    65   35   58 1  
    66   35   59 1  
    67   35   60 1  
    68   36   61 1  
    69   36   62 1  
    70   36   63 1  
@<TRIPOS>SUBSTRUCTURE
     1 UCN         1

