### 
### Created by X-TOOL on Mon Sep 10 21:12:50 2018
### 

@<TRIPOS>MOLECULE
1nvr_ligand
   62    69     1     0     0
SMALL
GAST_HUCK


@<TRIPOS>ATOM
      1 O4          4.1090    3.8420   16.8980 O.3       1 STU        -0.3149
      2 C25         2.8780    4.4680   17.0890 C.3       1 STU         0.1668
      3 C24         2.1340    4.5600   15.7110 C.3       1 STU         0.0455
      4 C23         2.9710    3.9240   14.5620 C.3       1 STU         0.0141
      5 C22         4.3910    4.5500   14.5100 C.3       1 STU         0.1556
      6 C21         5.0460    4.0680   15.8630 C.3       1 STU         0.2020
      7 C26         5.6760    2.6840   15.6240 C.3       1 STU        -0.0059
      8 N2          6.0370    5.1320   16.2960 N.pl3     1 STU        -0.2292
      9 C18         5.5620    6.2030   17.1420 C.ar      1 STU         0.0978
     10 C19         4.3440    6.4920   17.6880 C.ar      1 STU         0.0952
     11 C6          4.1150    7.6680   18.5110 C.ar      1 STU        -0.0018
     12 C7          5.3020    8.5120   18.7060 C.ar      1 STU         0.0320
     13 C10         6.4950    8.2250   18.1650 C.ar      1 STU        -0.0168
     14 C11         6.7090    7.0610   17.3510 C.ar      1 STU         0.0011
     15 C12         7.8090    6.5300   16.6450 C.ar      1 STU        -0.0075
     16 C17         7.4000    5.3150   15.9840 C.ar      1 STU         0.0695
     17 C16         8.3350    4.6050   15.2010 C.ar      1 STU        -0.0408
     18 C15         9.6440    5.0670   15.0540 C.ar      1 STU        -0.0739
     19 C14        10.0920    6.2950   15.6990 C.ar      1 STU        -0.0759
     20 C13         9.1290    6.9900   16.4930 C.ar      1 STU        -0.0696
     21 C9          7.5090    9.2890   18.5160 C.3       1 STU         0.0603
     22 N1          6.6460   10.1510   19.3150 N.am      1 STU        -0.2790
     23 C8          5.3800    9.7830   19.4780 C.2       1 STU         0.1871
     24 O5          4.4950   10.3560   20.1050 O.2       1 STU        -0.3964
     25 C5          2.7840    7.6920   18.8930 C.ar      1 STU        -0.0072
     26 C20         2.1730    6.5290   18.2940 C.ar      1 STU         0.0681
     27 C1          0.7880    6.2280   18.4640 C.ar      1 STU        -0.0404
     28 C2          0.0180    7.1080   19.2520 C.ar      1 STU        -0.0732
     29 C3          0.6160    8.2760   19.8560 C.ar      1 STU        -0.0750
     30 C4          1.9710    8.5510   19.6730 C.ar      1 STU        -0.0685
     31 N3          3.1040    5.8480   17.6020 N.pl3     1 STU        -0.2376
     32 O6          4.2020    5.9960   14.5360 O.3       1 STU        -0.3686
     33 C27         5.1750    6.6630   13.7510 C.3       1 STU         0.0373
     34 N4          2.1760    4.1590   13.2070 N.4       1 STU         0.2291
     35 C28         2.9260    3.5080   12.0710 C.3       1 STU        -0.0445
     36 H1          2.2729    3.8945   17.8066 H         1 STU         0.0933
     37 H2          1.9505    5.6185   15.4747 H         1 STU         0.0372
     38 H3          1.1734    4.0296   15.7882 H         1 STU         0.0372
     39 H4          3.0715    2.8430   14.7387 H         1 STU         0.0880
     40 H5          4.9697    4.2322   13.6302 H         1 STU         0.0710
     41 H6          6.4286    2.7568   14.8251 H         1 STU         0.0284
     42 H7          4.8930    1.9711   15.3262 H         1 STU         0.0284
     43 H8          6.1567    2.3351   16.5498 H         1 STU         0.0284
     44 H9          8.0327    3.6886   14.7071 H         1 STU         0.0538
     45 H10        10.3418    4.5009   14.4477 H         1 STU         0.0561
     46 H11        11.1051    6.6624   15.5820 H         1 STU         0.0516
     47 H12         9.4261    7.9034   16.9956 H         1 STU         0.0566
     48 H13         7.8972    9.8026   17.6241 H         1 STU         0.0679
     49 H14         8.3484    8.8853   19.1011 H         1 STU         0.0679
     50 H15         6.9960   10.9923   19.7271 H         1 STU         0.1863
     51 H16         0.3436    5.3532   18.0033 H         1 STU         0.0539
     52 H17        -1.0357    6.9055   19.4064 H         1 STU         0.0568
     53 H18         0.0075    8.9433   20.4556 H         1 STU         0.0516
     54 H19         2.4066    9.4310   20.1323 H         1 STU         0.0576
     55 H20         5.0005    7.7482   13.7950 H         1 STU         0.0524
     56 H21         5.1013    6.3218   12.7079 H         1 STU         0.0524
     57 H22         6.1785    6.4369   14.1407 H         1 STU         0.0524
     58 H23         2.0926    5.1483   13.0325 H         1 STU         0.2014
     59 H24         1.2567    3.7521   13.2808 H         1 STU         0.2014
     60 H25         2.3785    3.6685   11.1305 H         1 STU         0.0777
     61 H26         3.0170    2.4287   12.2626 H         1 STU         0.0777
     62 H27         3.9292    3.9522   11.9916 H         1 STU         0.0777
@<TRIPOS>BOND
     1    2    1 1  
     2    1    6 1  
     3    2    3 1  
     4    2   31 1  
     5    3    4 1  
     6    4    5 1  
     7    4   34 1  
     8    5    6 1  
     9    5   32 1  
    10    6    7 1  
    11    6    8 1  
    12    8    9 1  
    13    8   16 1  
    14    9   10 ar 
    15    9   14 ar 
    16   10   11 ar 
    17   31   10 1  
    18   11   12 ar 
    19   11   25 1  
    20   12   13 ar 
    21   12   23 1  
    22   14   13 ar 
    23   13   21 1  
    24   14   15 1  
    25   16   15 ar 
    26   15   20 ar 
    27   16   17 ar 
    28   17   18 ar 
    29   18   19 ar 
    30   20   19 ar 
    31   21   22 1  
    32   23   22 am 
    33   23   24 2  
    34   25   26 ar 
    35   25   30 ar 
    36   26   27 ar 
    37   31   26 1  
    38   27   28 ar 
    39   28   29 ar 
    40   30   29 ar 
    41   32   33 1  
    42   34   35 1  
    43    2   36 1  
    44    3   37 1  
    45    3   38 1  
    46    4   39 1  
    47    5   40 1  
    48    7   41 1  
    49    7   42 1  
    50    7   43 1  
    51   17   44 1  
    52   18   45 1  
    53   19   46 1  
    54   20   47 1  
    55   21   48 1  
    56   21   49 1  
    57   22   50 1  
    58   27   51 1  
    59   28   52 1  
    60   29   53 1  
    61   30   54 1  
    62   33   55 1  
    63   33   56 1  
    64   33   57 1  
    65   34   58 1  
    66   34   59 1  
    67   35   60 1  
    68   35   61 1  
    69   35   62 1  
@<TRIPOS>SUBSTRUCTURE
     1 STU         1

