### 
### Created by X-TOOL on Mon Sep 10 21:12:50 2018
### 

@<TRIPOS>MOLECULE
1nvs_ligand
   45    52     1     0     0
SMALL
GAST_HUCK


@<TRIPOS>ATOM
      1 N18         6.3370   10.2630   19.4530 N.am      1 UCM        -0.2028
      2 C29         4.9270    9.6930   19.4870 C.2       1 UCM         0.2252
      3 O30         3.9870   10.2130   20.0680 O.2       1 UCM        -0.3729
      4 C10         4.8800    8.4450   18.7220 C.ar      1 UCM         0.0532
      5 C09         3.7830    7.5530   18.4640 C.ar      1 UCM         0.0115
      6 C15         2.3870    7.4760   18.7990 C.ar      1 UCM        -0.0029
      7 C16         1.8740    6.2920   18.1930 C.ar      1 UCM         0.0710
      8 C34         0.4900    5.9220   18.3350 C.ar      1 UCM        -0.0395
      9 C33        -0.4050    6.7390   19.0910 C.ar      1 UCM        -0.0727
     10 C32         0.0850    7.9280   19.7090 C.ar      1 UCM        -0.0745
     11 C31         1.4600    8.2870   19.5600 C.ar      1 UCM        -0.0676
     12 N17         2.9280    5.6750   17.5190 N.pl3     1 UCM        -0.2318
     13 C08         4.0930    6.4170   17.6690 C.ar      1 UCM         0.1062
     14 C07         5.3640    6.1650   17.1600 C.ar      1 UCM         0.1062
     15 N06         5.8000    5.1030   16.3760 N.pl3     1 UCM        -0.2318
     16 C14         7.1480    5.2390   16.0860 C.ar      1 UCM         0.0710
     17 C13         7.6020    6.4390   16.7080 C.ar      1 UCM        -0.0029
     18 C22         8.9950    6.7870   16.5340 C.ar      1 UCM        -0.0676
     19 C21         9.8900    5.9780   15.7760 C.ar      1 UCM        -0.0745
     20 C20         9.4120    4.7830   15.1670 C.ar      1 UCM        -0.0727
     21 C19         8.0420    4.4130   15.3190 C.ar      1 UCM        -0.0395
     22 C12         6.4740    7.0150   17.3860 C.ar      1 UCM         0.0115
     23 C11         6.2080    8.1800   18.1890 C.ar      1 UCM         0.0532
     24 C27         7.0980    9.2560   18.6150 C.2       1 UCM         0.2252
     25 O28         8.2800    9.3470   18.3440 O.2       1 UCM        -0.3729
     26 C05         4.9590    3.9740   15.9060 C.3       1 UCM         0.1630
     27 O01         3.9990    3.6000   16.9070 O.3       1 UCM        -0.3201
     28 C02         2.8140    4.4020   16.7530 C.3       1 UCM         0.1630
     29 C03         2.7220    4.6730   15.2460 C.3       1 UCM         0.0050
     30 C04         4.1190    4.3910   14.6920 C.3       1 UCM         0.0050
     31 H1          6.6789   11.0999   19.8804 H         1 UCM         0.2207
     32 H2          0.1243    5.0164   17.8646 H         1 UCM         0.0541
     33 H3         -1.4469    6.4583   19.1943 H         1 UCM         0.0570
     34 H4         -0.5823    8.5557   20.2885 H         1 UCM         0.0519
     35 H5          1.8201    9.1944   20.0312 H         1 UCM         0.0578
     36 H6          9.3705    7.6932   16.9955 H         1 UCM         0.0578
     37 H7         10.9278    6.2703   15.6637 H         1 UCM         0.0519
     38 H8         10.0848    4.1578   14.5912 H         1 UCM         0.0570
     39 H9          7.6734    3.5056   14.8545 H         1 UCM         0.0541
     40 H10         5.6044    3.1199   15.6532 H         1 UCM         0.0934
     41 H11         1.9280    3.8495   17.0990 H         1 UCM         0.0934
     42 H12         2.4394    5.7198   15.0605 H         1 UCM         0.0318
     43 H13         1.9822    4.0054   14.7802 H         1 UCM         0.0318
     44 H14         4.0829    3.5788   13.9510 H         1 UCM         0.0318
     45 H15         4.5381    5.2947   14.2255 H         1 UCM         0.0318
@<TRIPOS>BOND
     1    2    1 am 
     2    1   24 am 
     3    2    3 2  
     4    2    4 1  
     5    4    5 ar 
     6    4   23 ar 
     7    5    6 1  
     8    5   13 ar 
     9    6    7 ar 
    10    6   11 ar 
    11    7    8 ar 
    12    7   12 1  
    13    8    9 ar 
    14    9   10 ar 
    15   11   10 ar 
    16   12   13 1  
    17   12   28 1  
    18   13   14 ar 
    19   14   15 1  
    20   14   22 ar 
    21   15   16 1  
    22   15   26 1  
    23   16   17 ar 
    24   16   21 ar 
    25   17   18 ar 
    26   22   17 1  
    27   18   19 ar 
    28   19   20 ar 
    29   21   20 ar 
    30   22   23 ar 
    31   23   24 1  
    32   24   25 2  
    33   26   27 1  
    34   26   30 1  
    35   28   27 1  
    36   28   29 1  
    37   29   30 1  
    38    1   31 1  
    39    8   32 1  
    40    9   33 1  
    41   10   34 1  
    42   11   35 1  
    43   18   36 1  
    44   19   37 1  
    45   20   38 1  
    46   21   39 1  
    47   26   40 1  
    48   28   41 1  
    49   29   42 1  
    50   29   43 1  
    51   30   44 1  
    52   30   45 1  
@<TRIPOS>SUBSTRUCTURE
     1 UCM         1

