### 
### Created by X-TOOL on Mon Sep 10 21:12:51 2018
### 

@<TRIPOS>MOLECULE
1nw4_ligand
   34    36     1     0     0
SMALL
GAST_HUCK


@<TRIPOS>ATOM
      1 O1          7.4180    1.1570   94.6480 O.3       1 IMH        -0.3894
      2 C2          8.6520    1.3670   93.9700 C.3       1 IMH         0.0894
      3 C3          8.3860    1.3530   92.5090 C.3       1 IMH         0.0313
      4 N4          7.4440    2.3560   92.1400 N.4       1 IMH         0.2435
      5 C5          9.6400    1.6000   91.7260 C.3       1 IMH         0.1317
      6 O6          9.5810    0.7130   90.6020 O.3       1 IMH        -0.3832
      7 C7          9.5160    3.0410   91.3480 C.3       1 IMH         0.1327
      8 O8          9.9980    3.2540   90.0160 O.3       1 IMH        -0.3821
      9 C9          8.0360    3.4550   91.4630 C.3       1 IMH         0.0244
     10 C9          7.8230    4.6840   92.3660 C.2       1 IMH         0.0057
     11 C8          6.5780    5.1940   92.7270 C.2       1 IMH         0.0223
     12 N7          6.6120    6.2500   93.5050 N.pl3     1 IMH        -0.2895
     13 C5          7.9650    6.4990   93.7090 C.2       1 IMH         0.1348
     14 C6          8.6010    7.5390   94.4790 C.2       1 IMH         0.2413
     15 O6          8.0430    8.4320   95.1270 O.2       1 IMH        -0.4013
     16 N1         10.0110    7.4730   94.4520 N.am      1 IMH        -0.2067
     17 C2         10.7440    6.5040   93.7530 C.2       1 IMH         0.1146
     18 N3         10.1430    5.5140   93.0180 N.2       1 IMH        -0.3199
     19 C4          8.7460    5.5570   93.0250 C.2       1 IMH         0.0184
     20 H1          7.5684    1.1627   95.5860 H         1 IMH         0.2097
     21 H2          9.3597    0.5652   94.2274 H         1 IMH         0.0614
     22 H3          9.0768    2.3387   94.2620 H         1 IMH         0.0614
     23 H4          7.9827    0.3655   92.2404 H         1 IMH         0.0900
     24 H5          6.9957    2.6979   92.9756 H         1 IMH         0.2029
     25 H6          6.7537    1.9404   91.5343 H         1 IMH         0.2029
     26 H7         10.5518    1.4199   92.3143 H         1 IMH         0.0680
     27 H8         10.3578    0.8288   90.0676 H         1 IMH         0.2102
     28 H9         10.1150    3.6488   92.0421 H         1 IMH         0.0693
     29 H10         9.4888    2.7303   89.4086 H         1 IMH         0.2103
     30 H11         7.5943    3.6255   90.4701 H         1 IMH         0.0961
     31 H12         5.6439    4.7484   92.3880 H         1 IMH         0.0779
     32 H13         5.8123    6.7785   93.8819 H         1 IMH         0.2273
     33 H14        10.5206    8.1633   94.9656 H         1 IMH         0.2519
     34 H15        11.8316    6.5385   93.7951 H         1 IMH         0.1426
@<TRIPOS>BOND
     1    1    2 1  
     2    2    3 1  
     3    3    4 1  
     4    3    5 1  
     5    4    9 1  
     6    5    6 1  
     7    5    7 1  
     8    7    8 1  
     9    7    9 1  
    10    9   10 1  
    11   10   11 2  
    12   10   19 1  
    13   11   12 1  
    14   12   13 1  
    15   13   14 1  
    16   13   19 2  
    17   14   15 2  
    18   14   16 am 
    19   16   17 am 
    20   17   18 2  
    21   18   19 1  
    22    1   20 1  
    23    2   21 1  
    24    2   22 1  
    25    3   23 1  
    26    4   24 1  
    27    4   25 1  
    28    5   26 1  
    29    6   27 1  
    30    7   28 1  
    31    8   29 1  
    32    9   30 1  
    33   11   31 1  
    34   12   32 1  
    35   16   33 1  
    36   17   34 1  
@<TRIPOS>SUBSTRUCTURE
     1 IMH         1

