### 
### Created by X-TOOL on Mon Sep 10 21:12:50 2018
### 

@<TRIPOS>MOLECULE
1nw5_ligand
   50    52     1     0     0
SMALL
GAST_HUCK


@<TRIPOS>ATOM
      1 N          26.5530   16.9510    0.1820 N.4       1 SAM         0.2328
      2 CA         26.6910   16.9820   -1.2790 C.3       1 SAM         0.0327
      3 C          26.7070   15.5780   -1.9060 C.2       1 SAM         0.0846
      4 O          26.8530   15.4790   -3.1280 O.co2     1 SAM        -0.5643
      5 OXT        26.5610   14.6140   -1.1460 O.co2     1 SAM        -0.5643
      6 CB         27.9940   17.6990   -1.7220 C.3       1 SAM         0.0473
      7 CG         27.9200   19.2490   -1.5940 C.3       1 SAM         0.1163
      8 SD         29.4590   20.1320   -2.0780 S.3       1 SAM        -0.0103
      9 CE         30.5550   19.9410   -0.6360 C.3       1 SAM         0.0995
     10 C5'        29.0000   21.8750   -2.1740 C.3       1 SAM         0.1381
     11 C4'        28.1210   22.2410   -3.3800 C.3       1 SAM         0.1350
     12 O4'        27.7670   23.6090   -3.3560 O.3       1 SAM        -0.3344
     13 C3'        28.7410   21.9740   -4.7670 C.3       1 SAM         0.1168
     14 O3'        28.0630   20.9470   -5.4800 O.3       1 SAM        -0.3863
     15 C2'        28.8200   23.3610   -5.4010 C.3       1 SAM         0.1386
     16 O2'        28.4440   23.3480   -6.7790 O.3       1 SAM        -0.3836
     17 C1'        27.7070   24.1130   -4.6670 C.3       1 SAM         0.2011
     18 N9         27.8700   25.5720   -4.5350 N.pl3     1 SAM        -0.1919
     19 C8         28.9550   26.3660   -4.3770 C.2       1 SAM         0.1123
     20 N7         28.6560   27.6680   -4.2810 N.2       1 SAM        -0.2958
     21 C5         27.2640   27.7470   -4.3810 C.ar      1 SAM         0.1045
     22 C6         26.2800   28.7290   -4.3590 C.ar      1 SAM         0.1298
     23 N6         26.5870   30.0440   -4.2040 N.pl3     1 SAM        -0.3152
     24 N1         24.9470   28.4030   -4.4920 N.ar      1 SAM        -0.2698
     25 C2         24.5890   27.1090   -4.6490 C.ar      1 SAM         0.0533
     26 N3         25.4790   26.0980   -4.6800 N.ar      1 SAM        -0.2714
     27 C4         26.7890   26.4310   -4.5440 C.ar      1 SAM         0.1613
     28 H1         26.5482   17.8936    0.5391 H         1 SAM         0.2010
     29 H2         27.3270   16.4441    0.5820 H         1 SAM         0.2010
     30 H3         25.6889   16.4941    0.4283 H         1 SAM         0.2010
     31 H4         25.8299   17.5348   -1.6827 H         1 SAM         0.1026
     32 H5         28.1917   17.4449   -2.7738 H         1 SAM         0.0385
     33 H6         28.8221   17.3364   -1.0953 H         1 SAM         0.0385
     34 H7         27.6979   19.4964   -0.5455 H         1 SAM         0.0843
     35 H8         27.1023   19.6076   -2.2365 H         1 SAM         0.0843
     36 H9         31.5131   20.4436   -0.8346 H         1 SAM         0.0803
     37 H10        30.7335   18.8716   -0.4502 H         1 SAM         0.0803
     38 H11        30.0804   20.3925    0.2477 H         1 SAM         0.0803
     39 H12        29.9234   22.4701   -2.2297 H         1 SAM         0.0867
     40 H13        28.4504   22.1358   -1.2575 H         1 SAM         0.0867
     41 H14        27.2042   21.6383   -3.3010 H         1 SAM         0.0671
     42 H15        29.7712   21.6140   -4.6290 H         1 SAM         0.0649
     43 H16        27.1559   21.1981   -5.6086 H         1 SAM         0.2100
     44 H17        29.8120   23.8168   -5.2659 H         1 SAM         0.0676
     45 H18        27.5498   23.0372   -6.8592 H         1 SAM         0.2101
     46 H19        26.7400   23.8979   -5.1452 H         1 SAM         0.0996
     47 H20        29.9734   25.9828   -4.3322 H         1 SAM         0.1349
     48 H21        25.8371   30.7499   -4.1915 H         1 SAM         0.1820
     49 H22        27.5696   30.3346   -4.0991 H         1 SAM         0.1820
     50 H23        23.5362   26.8736   -4.7550 H         1 SAM         0.0996
@<TRIPOS>BOND
     1    1    2 1  
     2    2    3 1  
     3    2    6 1  
     4    3    4 ar 
     5    3    5 ar 
     6    6    7 1  
     7    7    8 1  
     8    8    9 1  
     9    8   10 1  
    10   10   11 1  
    11   11   12 1  
    12   11   13 1  
    13   12   17 1  
    14   13   14 1  
    15   13   15 1  
    16   15   16 1  
    17   15   17 1  
    18   17   18 1  
    19   18   19 1  
    20   18   27 1  
    21   19   20 2  
    22   20   21 1  
    23   21   22 ar 
    24   21   27 ar 
    25   22   23 1  
    26   22   24 ar 
    27   24   25 ar 
    28   25   26 ar 
    29   26   27 ar 
    30    1   28 1  
    31    1   29 1  
    32    1   30 1  
    33    2   31 1  
    34    6   32 1  
    35    6   33 1  
    36    7   34 1  
    37    7   35 1  
    38    9   36 1  
    39    9   37 1  
    40    9   38 1  
    41   10   39 1  
    42   10   40 1  
    43   11   41 1  
    44   13   42 1  
    45   14   43 1  
    46   15   44 1  
    47   16   45 1  
    48   17   46 1  
    49   19   47 1  
    50   23   48 1  
    51   23   49 1  
    52   25   50 1  
@<TRIPOS>SUBSTRUCTURE
     1 SAM         1

