### 
### Created by X-TOOL on Mon Sep 10 21:12:50 2018
### 

@<TRIPOS>MOLECULE
1nw7_ligand
   46    48     1     0     0
SMALL
GAST_HUCK


@<TRIPOS>ATOM
      1 N          32.1050   21.0830    2.2810 N.4       1 SAH         0.2327
      2 CA         32.7850   20.0740    1.4480 C.3       1 SAH         0.0291
      3 CB         31.9580   19.8100    0.1710 C.3       1 SAH         0.0114
      4 CG         31.6500   21.0980   -0.6090 C.3       1 SAH         0.0005
      5 SD         30.6180   20.8150   -2.1010 S.3       1 SAH        -0.1578
      6 C          34.2000   20.5660    1.0980 C.2       1 SAH         0.0844
      7 O          34.4940   21.7350    1.4270 O.co2     1 SAH        -0.5643
      8 OXT        34.9560   19.7570    0.5160 O.co2     1 SAH        -0.5643
      9 C5'        29.9130   22.4910   -2.2940 C.3       1 SAH         0.0226
     10 C4'        28.7790   22.5530   -3.3240 C.3       1 SAH         0.0995
     11 O4'        28.1780   23.8750   -3.2700 O.3       1 SAH        -0.3383
     12 C3'        29.2820   22.3550   -4.7600 C.3       1 SAH         0.1132
     13 O3'        28.4320   21.4190   -5.4340 O.3       1 SAH        -0.3864
     14 C2'        29.1710   23.7270   -5.4020 C.3       1 SAH         0.1385
     15 O2'        28.7690   23.5900   -6.7710 O.3       1 SAH        -0.3836
     16 C1'        28.0440   24.3860   -4.6220 C.3       1 SAH         0.2009
     17 N9         28.0850   25.8850   -4.6170 N.pl3     1 SAH        -0.1919
     18 C8         29.1840   26.6590   -4.5410 C.2       1 SAH         0.1123
     19 N7         28.8160   27.9420   -4.4650 N.2       1 SAH        -0.2958
     20 C5         27.4860   27.9840   -4.4980 C.ar      1 SAH         0.1045
     21 C6         26.5480   29.0200   -4.4490 C.ar      1 SAH         0.1298
     22 N6         26.9470   30.2940   -4.3680 N.pl3     1 SAH        -0.3152
     23 N1         25.2240   28.7190   -4.5010 N.ar      1 SAH        -0.2698
     24 C2         24.8080   27.4470   -4.6010 C.ar      1 SAH         0.0533
     25 N3         25.6890   26.4410   -4.6500 N.ar      1 SAH        -0.2714
     26 C4         27.0230   26.6820   -4.5990 C.ar      1 SAH         0.1613
     27 H1         31.1780   20.7602    2.5100 H         1 SAH         0.2010
     28 H2         32.0424   21.9513    1.7729 H         1 SAH         0.2010
     29 H3         32.6297   21.2272    3.1295 H         1 SAH         0.2010
     30 H4         32.8669   19.1357    2.0161 H         1 SAH         0.1024
     31 H5         31.0078   19.3360    0.4581 H         1 SAH         0.0347
     32 H6         32.5247   19.1297   -0.4817 H         1 SAH         0.0347
     33 H7         32.6015   21.5515   -0.9237 H         1 SAH         0.0379
     34 H8         31.1164   21.7909    0.0581 H         1 SAH         0.0379
     35 H9         30.7144   23.1729   -2.6146 H         1 SAH         0.0402
     36 H10        29.5197   22.8193   -1.3206 H         1 SAH         0.0402
     37 H11        28.0310   21.7824   -3.0860 H         1 SAH         0.0632
     38 H12        30.3222   21.9975   -4.7717 H         1 SAH         0.0647
     39 H13        27.5436   21.7549   -5.4509 H         1 SAH         0.2100
     40 H14        30.1115   24.2924   -5.3265 H         1 SAH         0.0676
     41 H15        27.9255   23.1547   -6.8101 H         1 SAH         0.2101
     42 H16        27.0797   24.0726   -5.0485 H         1 SAH         0.0996
     43 H17        30.2111   26.2969   -4.5414 H         1 SAH         0.1349
     44 H18        26.2493   31.0509   -4.3324 H         1 SAH         0.1820
     45 H19        27.9519   30.5182   -4.3413 H         1 SAH         0.1820
     46 H20        23.7463   27.2321   -4.6425 H         1 SAH         0.0996
@<TRIPOS>BOND
     1    1    2 1  
     2    2    3 1  
     3    2    6 1  
     4    3    4 1  
     5    4    5 1  
     6    5    9 1  
     7    6    7 ar 
     8    6    8 ar 
     9    9   10 1  
    10   10   11 1  
    11   10   12 1  
    12   11   16 1  
    13   12   13 1  
    14   12   14 1  
    15   14   15 1  
    16   14   16 1  
    17   16   17 1  
    18   17   18 1  
    19   17   26 1  
    20   18   19 2  
    21   19   20 1  
    22   20   21 ar 
    23   20   26 ar 
    24   21   22 1  
    25   21   23 ar 
    26   23   24 ar 
    27   24   25 ar 
    28   25   26 ar 
    29    1   27 1  
    30    1   28 1  
    31    1   29 1  
    32    2   30 1  
    33    3   31 1  
    34    3   32 1  
    35    4   33 1  
    36    4   34 1  
    37    9   35 1  
    38    9   36 1  
    39   10   37 1  
    40   12   38 1  
    41   13   39 1  
    42   14   40 1  
    43   15   41 1  
    44   16   42 1  
    45   18   43 1  
    46   22   44 1  
    47   22   45 1  
    48   24   46 1  
@<TRIPOS>SUBSTRUCTURE
     1 SAH         1

