### 
### Created by X-TOOL on Mon Sep 10 21:12:50 2018
### 

@<TRIPOS>MOLECULE
1nwl_ligand
   57    58     1     0     0
SMALL
GAST_HUCK


@<TRIPOS>ATOM
      1 O31        49.0630   34.6970   40.0850 O.co2     1 964        -0.5544
      2 C1         64.6830   31.1400   31.4810 C.3       1 964         0.0256
      3 C2         64.0760   30.2340   32.5470 C.2       1 964         0.1729
      4 N4         62.7840   30.3600   32.8530 N.am      1 964        -0.2864
      5 O3         64.7920   29.4170   33.1020 O.2       1 964        -0.3974
      6 C29        49.3350   33.4820   40.1650 C.2       1 964         0.0935
      7 O30        49.5920   32.9380   41.2570 O.co2     1 964        -0.5544
      8 C24        49.6870   32.7420   38.9110 C.ar      1 964         0.1327
      9 N25        48.8090   31.8350   38.4190 N.ar      1 964        -0.2511
     10 C26        49.0880   31.1520   37.2990 C.ar      1 964         0.0493
     11 C27        50.2930   31.3780   36.6360 C.ar      1 964         0.0496
     12 N28        51.1660   32.2750   37.1210 N.ar      1 964        -0.2477
     13 C22        50.8940   32.9710   38.2530 C.ar      1 964         0.1668
     14 C21        51.9830   33.8610   38.8560 C.2       1 964         0.2352
     15 O23        52.1610   33.8640   40.0630 O.2       1 964        -0.3746
     16 N20        52.9390   34.4840   37.9610 N.am      1 964        -0.2796
     17 C17        54.3650   34.1790   38.0290 C.3       1 964         0.0422
     18 C18        55.1120   35.4000   37.4790 C.3       1 964        -0.0276
     19 C19        54.9140   35.6230   35.9770 C.3       1 964        -0.0311
     20 C16        54.6070   32.9360   37.1670 C.3       1 964        -0.0276
     21 C15        54.4090   33.1840   35.6690 C.3       1 964        -0.0311
     22 C13        55.2330   34.3690   35.1610 C.3       1 964         0.0488
     23 C12        54.9470   34.6260   33.6830 C.2       1 964         0.1791
     24 O14        53.8030   34.6500   33.2500 O.2       1 964        -0.3968
     25 N11        56.1040   34.8420   32.8380 N.am      1 964        -0.2859
     26 C10        56.5060   33.8630   31.8480 C.3       1 964         0.0407
     27 C9         57.6630   33.0370   32.3930 C.3       1 964         0.0241
     28 S7         60.5830   32.4370   32.7560 S.3       1 964        -0.0911
     29 C5         61.7380   30.1680   31.8640 C.3       1 964         0.0406
     30 C6         60.4070   30.7290   32.3560 C.3       1 964         0.0241
     31 S8         59.1630   33.5190   31.8580 S.3       1 964        -0.0911
     32 H1         65.7494   30.8992   31.3591 H         1 964         0.0467
     33 H2         64.5772   32.1906   31.7891 H         1 964         0.0467
     34 H3         64.1603   30.9836   30.5258 H         1 964         0.0467
     35 H4         62.5280   30.5936   33.7910 H         1 964         0.1851
     36 H5         48.3802   30.4282   36.9115 H         1 964         0.0964
     37 H6         50.5249   30.8301   35.7299 H         1 964         0.0957
     38 H7         52.6130   35.1394   37.2797 H         1 964         0.1853
     39 H8         54.6752   33.9832   39.0660 H         1 964         0.0556
     40 H9         56.1866   35.2639   37.6703 H         1 964         0.0289
     41 H10        54.7550   36.2936   38.0119 H         1 964         0.0289
     42 H11        55.5768   36.4374   35.6491 H         1 964         0.0293
     43 H12        53.8669   35.9069   35.7958 H         1 964         0.0293
     44 H13        53.9067   32.1497   37.4853 H         1 964         0.0289
     45 H14        55.6400   32.5949   37.3299 H         1 964         0.0289
     46 H15        53.3443   33.3879   35.4822 H         1 964         0.0293
     47 H16        54.7116   32.2812   35.1182 H         1 964         0.0293
     48 H17        56.3006   34.1316   35.2783 H         1 964         0.0538
     49 H18        56.6354   35.6829   32.9399 H         1 964         0.1851
     50 H19        56.8241   34.3789   30.9300 H         1 964         0.0528
     51 H20        55.6574   33.2008   31.6213 H         1 964         0.0528
     52 H21        57.5103   31.9901   32.0918 H         1 964         0.0404
     53 H22        57.6499   33.1085   33.4906 H         1 964         0.0404
     54 H23        62.0234   30.6829   30.9348 H         1 964         0.0528
     55 H24        61.6234   29.0919   31.6667 H         1 964         0.0528
     56 H25        59.6499   30.6161   31.5660 H         1 964         0.0404
     57 H26        60.0876   30.1762   33.2517 H         1 964         0.0404
@<TRIPOS>BOND
     1    6    1 ar 
     2    3    2 1  
     3    4    3 am 
     4    3    5 2  
     5    6    7 ar 
     6    8    6 1  
     7    8    9 ar 
     8   13    8 ar 
     9    9   10 ar 
    10   11   10 ar 
    11   12   11 ar 
    12   13   12 ar 
    13   14   13 1  
    14   14   15 2  
    15   16   14 am 
    16   17   16 1  
    17   18   17 1  
    18   20   17 1  
    19   19   18 1  
    20   22   19 1  
    21   21   20 1  
    22   22   21 1  
    23   23   22 1  
    24   23   24 2  
    25   25   23 am 
    26   26   25 1  
    27   27   26 1  
    28   31   27 1  
    29   30   28 1  
    30   28   31 1  
    31   29   30 1  
    32   29    4 1  
    33    2   32 1  
    34    2   33 1  
    35    2   34 1  
    36    4   35 1  
    37   10   36 1  
    38   11   37 1  
    39   16   38 1  
    40   17   39 1  
    41   18   40 1  
    42   18   41 1  
    43   19   42 1  
    44   19   43 1  
    45   20   44 1  
    46   20   45 1  
    47   21   46 1  
    48   21   47 1  
    49   22   48 1  
    50   25   49 1  
    51   26   50 1  
    52   26   51 1  
    53   27   52 1  
    54   27   53 1  
    55   29   54 1  
    56   29   55 1  
    57   30   56 1  
    58   30   57 1  
@<TRIPOS>SUBSTRUCTURE
     1 964         1

