### 
### Created by X-TOOL on Mon Sep 10 21:12:50 2018
### 

@<TRIPOS>MOLECULE
1ny2_ligand
   62    63     1     0     0
SMALL
GAST_HUCK


@<TRIPOS>ATOM
      1 N          36.1170   36.3640    4.8030 N.4       1 ARG         0.2379
      2 CA         35.8490   37.7380    5.2290 C.3       1 ARG         0.0653
      3 C          35.7220   38.7130    4.0620 C.2       1 ARG         0.2292
      4 O          36.4200   39.8060    4.1540 O.2       1 ARG        -0.3905
      5 CB         36.9400   38.2470    6.2070 C.3       1 ARG         0.0110
      6 CG         36.5200   38.5600    7.6140 C.3       1 ARG        -0.0125
      7 CD         35.3070   39.3540    7.8150 C.3       1 ARG         0.0629
      8 NE         35.3310   40.7580    8.0730 N.pl3     1 ARG        -0.2723
      9 CZ         35.3360   41.6330    9.0630 C.cat     1 ARG         0.2882
     10 NH1        35.3160   41.3610   10.3820 N.pl3     1 ARG        -0.2849
     11 NH2        35.3690   42.9590    8.7740 N.pl3     1 ARG        -0.2849
     12 N          34.7900   38.4870    3.1250 N.am      1 PRO        -0.2471
     13 CA         34.6230   39.3280    1.9390 C.3       1 PRO         0.1341
     14 C          33.9030   40.6240    2.1560 C.2       1 PRO         0.2066
     15 O          32.8600   40.6840    2.7630 O.2       1 PRO        -0.3942
     16 CB         33.9550   38.4520    0.8680 C.3       1 PRO        -0.0104
     17 CG         34.1710   37.0540    1.3990 C.3       1 PRO        -0.0281
     18 CD         34.0210   37.2510    2.9350 C.3       1 PRO         0.0371
     19 N          34.5050   41.6800    1.6430 N.am      1 PRO        -0.2498
     20 CA         33.9040   43.0220    1.5980 C.3       1 PRO         0.1337
     21 C          32.8600   43.0590    0.4340 C.2       1 PRO         0.2033
     22 O          32.9680   42.4120   -0.6460 O.2       1 PRO        -0.3944
     23 CB         35.1210   43.9260    1.3020 C.3       1 PRO        -0.0104
     24 CG         35.8030   43.0820    0.2180 C.3       1 PRO        -0.0281
     25 CD         35.8080   41.6790    0.8970 C.3       1 PRO         0.0369
     26 N          31.8680   43.9370    0.6770 N.am      1 GLY        -0.2722
     27 CA         30.7580   44.2180   -0.2360 C.3       1 GLY         0.0833
     28 C          31.1530   45.4580   -1.0650 C.2       1 GLY         0.0570
     29 O          32.1810   45.3900   -1.8350 O.co2     1 GLY        -0.5669
     30 O1         30.4793   46.5201   -0.9889 O.co2     1 GLY        -0.5669
     31 H1         36.1902   35.7692    5.6135 H         1 ARG         0.2015
     32 H2         36.9817   36.3351    4.2859 H         1 ARG         0.2015
     33 H3         35.3636   36.0411    4.2163 H         1 ARG         0.2015
     34 H4         34.8882   37.7322    5.7646 H         1 ARG         0.1098
     35 H5         37.3638   39.1668    5.7777 H         1 ARG         0.0347
     36 H6         37.7206   37.4739    6.2608 H         1 ARG         0.0347
     37 H7         37.3491   39.1062    8.0877 H         1 ARG         0.0302
     38 H8         36.3705   37.6004    8.1305 H         1 ARG         0.0302
     39 H9         34.7841   38.8979    8.6685 H         1 ARG         0.0689
     40 H10        34.7048   39.2235    6.9038 H         1 ARG         0.0689
     41 H11        35.3515   41.2645    7.1763 H         1 ARG         0.2642
     42 H12        35.3225   42.1305   11.0667 H         1 ARG         0.2615
     43 H13        35.2942   40.3835   10.7060 H         1 ARG         0.2615
     44 H14        35.3864   43.2720    7.7929 H         1 ARG         0.2615
     45 H15        35.3767   43.6521    9.5359 H         1 ARG         0.2615
     46 H16        35.6289   39.5927    1.5811 H         1 PRO         0.0802
     47 H17        34.4395   38.5836   -0.1107 H         1 PRO         0.0313
     48 H18        32.8828   38.6815    0.7802 H         1 PRO         0.0313
     49 H19        35.1736   36.6815    1.1420 H         1 PRO         0.0287
     50 H20        33.4112   36.3595    1.0112 H         1 PRO         0.0287
     51 H21        32.9682   37.3793    3.2266 H         1 PRO         0.0524
     52 H22        34.4572   36.4115    3.4961 H         1 PRO         0.0524
     53 H23        33.4238   43.2930    2.5498 H         1 PRO         0.0802
     54 H24        35.7622   44.0542    2.1866 H         1 PRO         0.0313
     55 H25        34.8170   44.9130    0.9233 H         1 PRO         0.0313
     56 H26        36.8242   43.4356    0.0129 H         1 PRO         0.0287
     57 H27        35.2220   43.0772   -0.7160 H         1 PRO         0.0287
     58 H28        35.8376   40.8741    0.1479 H         1 PRO         0.0524
     59 H29        36.6603   41.5720    1.5841 H         1 PRO         0.0524
     60 H30        31.8911   44.4335    1.5447 H         1 GLY         0.1873
     61 H31        29.8416   44.4236    0.3366 H         1 GLY         0.0689
     62 H32        30.5897   43.3580   -0.9009 H         1 GLY         0.0689
@<TRIPOS>BOND
     1    1    2 1  
     2    2    3 1  
     3    2    5 1  
     4    3    4 2  
     5    3   12 am 
     6    5    6 1  
     7    6    7 1  
     8    7    8 1  
     9    8    9 ar 
    10    9   10 ar 
    11    9   11 ar 
    12   12   13 1  
    13   12   18 1  
    14   13   14 1  
    15   13   16 1  
    16   14   15 2  
    17   14   19 am 
    18   16   17 1  
    19   17   18 1  
    20   19   20 1  
    21   19   25 1  
    22   20   21 1  
    23   20   23 1  
    24   21   22 2  
    25   21   26 am 
    26   23   24 1  
    27   24   25 1  
    28   26   27 1  
    29   27   28 1  
    30   28   29 ar 
    31   28   30 ar 
    32    1   31 1  
    33    1   32 1  
    34    1   33 1  
    35    2   34 1  
    36    5   35 1  
    37    5   36 1  
    38    6   37 1  
    39    6   38 1  
    40    7   39 1  
    41    7   40 1  
    42    8   41 1  
    43   10   42 1  
    44   10   43 1  
    45   11   44 1  
    46   11   45 1  
    47   13   46 1  
    48   16   47 1  
    49   16   48 1  
    50   17   49 1  
    51   17   50 1  
    52   18   51 1  
    53   18   52 1  
    54   20   53 1  
    55   23   54 1  
    56   23   55 1  
    57   24   56 1  
    58   24   57 1  
    59   25   58 1  
    60   25   59 1  
    61   26   60 1  
    62   27   61 1  
    63   27   62 1  
@<TRIPOS>SUBSTRUCTURE
     1 ARG         1

