### 
### Created by X-TOOL on Mon Sep 10 21:12:50 2018
### 

@<TRIPOS>MOLECULE
1nyx_ligand
   55    58     1     0     0
SMALL
GAST_HUCK


@<TRIPOS>ATOM
      1 O45        18.1290   63.1530   21.2310 O.co2     1 DRF        -0.5662
      2 C44        18.9010   63.0530   20.2510 C.2       1 DRF         0.0654
      3 O55        19.9750   62.7220   20.8990 O.co2     1 DRF        -0.5662
      4 C41        18.7300   63.2370   18.9670 C.3       1 DRF         0.1186
      5 O46        20.0370   63.7800   18.3210 O.3       1 DRF        -0.3610
      6 C48        19.8480   65.0350   17.7230 C.3       1 DRF         0.0476
      7 C49        21.1320   65.5140   17.1070 C.3       1 DRF        -0.0414
      8 C40        18.2960   62.1510   18.1620 C.3       1 DRF         0.0141
      9 C33        17.8290   61.8270   16.8800 C.ar      1 DRF        -0.0496
     10 C34        18.8240   61.5670   15.9080 C.ar      1 DRF        -0.0686
     11 C35        18.4500   61.2540   14.5860 C.ar      1 DRF        -0.0396
     12 C30        17.0820   61.2000   14.2370 C.ar      1 DRF         0.0841
     13 O27        16.7120   60.9010   12.9320 O.3       1 DRF        -0.3202
     14 C24        16.2430   62.0960   12.3240 C.3       1 DRF         0.0916
     15 C23        16.0920   61.9160   10.8160 C.3       1 DRF         0.0683
     16 N22        15.8650   63.2260   10.1840 N.pl3     1 DRF        -0.2619
     17 C11        14.5870   63.7110    9.9910 C.ar      1 DRF         0.0944
     18 C16        14.4060   65.1380    9.8510 C.ar      1 DRF         0.1365
     19 O21        15.4990   65.9450    9.9100 O.3       1 DRF        -0.2657
     20 C4         16.7290   65.4170    9.6440 C.ar      1 DRF         0.1365
     21 C3         16.9260   63.9950    9.7850 C.ar      1 DRF         0.0944
     22 C2         18.2120   63.4480    9.5100 C.ar      1 DRF        -0.0473
     23 C1         19.2720   64.2820    9.1050 C.ar      1 DRF        -0.0838
     24 C6         19.0680   65.6740    8.9700 C.ar      1 DRF        -0.0830
     25 C5         17.8020   66.2370    9.2380 C.ar      1 DRF        -0.0389
     26 C15        13.1140   65.6760    9.6600 C.ar      1 DRF        -0.0389
     27 C14        11.9920   64.8180    9.6070 C.ar      1 DRF        -0.0830
     28 C13        12.1550   63.4170    9.7410 C.ar      1 DRF        -0.0838
     29 C12        13.4400   62.8660    9.9320 C.ar      1 DRF        -0.0473
     30 C31        16.0900   61.4570   15.2210 C.ar      1 DRF        -0.0396
     31 C32        16.4690   61.7680   16.5330 C.ar      1 DRF        -0.0686
     32 H1         17.9566   64.0143   18.8794 H         1 DRF         0.0787
     33 H2         19.5201   65.7558   18.4865 H         1 DRF         0.0559
     34 H3         19.0783   64.9531   16.9414 H         1 DRF         0.0559
     35 H4         20.9709   66.4978   16.6419 H         1 DRF         0.0252
     36 H5         21.4616   64.7962   16.3415 H         1 DRF         0.0252
     37 H6         21.9034   65.5989   17.8865 H         1 DRF         0.0252
     38 H7         17.4785   61.7538   18.7815 H         1 DRF         0.0448
     39 H8         19.1680   61.4844   18.2342 H         1 DRF         0.0448
     40 H9         19.8725   61.6086   16.1800 H         1 DRF         0.0530
     41 H10        19.2098   61.0552   13.8388 H         1 DRF         0.0525
     42 H11        16.9611   62.9058   12.5200 H         1 DRF         0.0634
     43 H12        15.2660   62.3600   12.7549 H         1 DRF         0.0634
     44 H13        15.2362   61.2565   10.6096 H         1 DRF         0.0580
     45 H14        17.0087   61.4660   10.4071 H         1 DRF         0.0580
     46 H15        18.3761   62.3815    9.6133 H         1 DRF         0.0485
     47 H16        20.2465   63.8554    8.8964 H         1 DRF         0.0494
     48 H17        19.8875   66.3119    8.6593 H         1 DRF         0.0483
     49 H18        17.6536   67.3055    9.1312 H         1 DRF         0.0504
     50 H19        12.9830   66.7468    9.5541 H         1 DRF         0.0504
     51 H20        11.0015   65.2341    9.4631 H         1 DRF         0.0483
     52 H21        11.2894   62.7660    9.6966 H         1 DRF         0.0494
     53 H22        13.5559   61.7931   10.0346 H         1 DRF         0.0485
     54 H23        15.0397   61.4124   14.9564 H         1 DRF         0.0525
     55 H24        15.7109   61.9637   17.2827 H         1 DRF         0.0530
@<TRIPOS>BOND
     1    1    2 ar 
     2    2    3 ar 
     3    2    4 1  
     4    4    5 1  
     5    4    8 1  
     6    5    6 1  
     7    6    7 1  
     8    8    9 1  
     9    9   10 ar 
    10    9   31 ar 
    11   10   11 ar 
    12   11   12 ar 
    13   12   13 1  
    14   12   30 ar 
    15   13   14 1  
    16   14   15 1  
    17   15   16 1  
    18   16   17 1  
    19   16   21 1  
    20   17   18 ar 
    21   17   29 ar 
    22   18   19 1  
    23   18   26 ar 
    24   19   20 1  
    25   20   21 ar 
    26   20   25 ar 
    27   21   22 ar 
    28   22   23 ar 
    29   23   24 ar 
    30   24   25 ar 
    31   26   27 ar 
    32   27   28 ar 
    33   28   29 ar 
    34   30   31 ar 
    35    4   32 1  
    36    6   33 1  
    37    6   34 1  
    38    7   35 1  
    39    7   36 1  
    40    7   37 1  
    41    8   38 1  
    42    8   39 1  
    43   10   40 1  
    44   11   41 1  
    45   14   42 1  
    46   14   43 1  
    47   15   44 1  
    48   15   45 1  
    49   22   46 1  
    50   23   47 1  
    51   24   48 1  
    52   25   49 1  
    53   26   50 1  
    54   27   51 1  
    55   28   52 1  
    56   29   53 1  
    57   30   54 1  
    58   31   55 1  
@<TRIPOS>SUBSTRUCTURE
     1 DRF         1

