### 
### Created by X-TOOL on Mon Sep 10 21:12:50 2018
### 

@<TRIPOS>MOLECULE
1nz7_ligand
   84    85     1     0     0
SMALL
GAST_HUCK


@<TRIPOS>ATOM
      1 O6         35.7960   30.0420   23.4430 O.co2     1 901        -0.5453
      2 C24        34.8560   29.2950   23.7270 C.2       1 901         0.1551
      3 O7         33.9830   29.6860   24.4570 O.co2     1 901        -0.5453
      4 C8         34.7810   27.8570   23.1240 C.2       1 901         0.2956
      5 O5         35.0950   26.9380   23.9000 O.2       1 901        -0.3430
      6 N4         34.3740   27.6280   21.7530 N.am      1 901        -0.1658
      7 C26        34.3520   26.3200   21.1990 C.ar      1 901         0.1045
      8 C27        33.1090   25.9260   20.5740 C.ar      1 901        -0.0322
      9 C28        32.9290   24.6680   19.9780 C.ar      1 901        -0.0712
     10 C29        33.9690   23.7240   19.9810 C.ar      1 901        -0.0723
     11 C30        35.2050   24.0410   20.5750 C.ar      1 901        -0.0596
     12 C25        35.4480   25.3150   21.2040 C.ar      1 901         0.0353
     13 C31        36.8440   25.4580   21.7700 C.2       1 901         0.0559
     14 O9         37.6800   24.5540   21.7180 O.co2     1 901        -0.5652
     15 O10        37.2040   26.4580   22.3010 O.co2     1 901        -0.5652
     16 C2         33.8780   28.7270   20.9920 C.ar      1 901         0.0903
     17 C3         32.5840   29.2390   21.3870 C.ar      1 901        -0.0470
     18 C4         31.9140   30.3380   20.7780 C.ar      1 901        -0.0776
     19 C5         32.5260   31.0410   19.7040 C.ar      1 901        -0.0579
     20 C6         33.8780   30.4990   19.3010 C.ar      1 901        -0.0686
     21 C1         34.5700   29.3730   19.9080 C.ar      1 901        -0.0208
     22 C32        35.9420   28.8750   19.4460 C.3       1 901        -0.0259
     23 C33        37.0400   29.9520   19.3760 C.3       1 901        -0.0572
     24 C7         31.9740   32.2570   18.7980 C.3       1 901         0.0139
     25 C9         31.1950   31.4670   17.6480 C.3       1 901         0.1385
     26 N1         31.2010   32.2800   16.4480 N.am      1 901        -0.2643
     27 C10        31.1170   33.3250   15.6150 C.2       1 901         0.1752
     28 O4         31.5570   32.9620   14.4230 O.2       1 901        -0.3972
     29 C23        30.8810   34.7290   15.9670 C.3       1 901         0.0258
     30 C11        29.9780   30.5910   17.9600 C.2       1 901         0.2035
     31 O8         30.3820   29.4080   17.8860 O.2       1 901        -0.3944
     32 N2         28.7940   31.0600   18.1140 N.am      1 901        -0.2849
     33 C12        27.6640   30.2030   18.2510 C.3       1 901         0.0311
     34 C13        26.7540   30.7360   19.3630 C.3       1 901        -0.0307
     35 C15        27.4040   30.6850   20.7750 C.3       1 901        -0.0342
     36 C14        26.4990   31.2100   21.9140 C.3       1 901         0.0374
     37 C16        25.3580   30.2310   22.2820 C.2       1 901         0.1777
     38 O1         25.3270   29.0480   22.6160 O.2       1 901        -0.3970
     39 N3         24.2710   31.0360   22.1280 N.am      1 901        -0.2714
     40 C17        22.8930   30.5330   22.2650 C.3       1 901         0.0950
     41 C22        22.6240   29.4330   21.2090 C.2       1 901         0.0601
     42 O2         22.1050   28.3740   21.5520 O.co2     1 901        -0.5666
     43 O3         22.9420   29.6080   20.0560 O.co2     1 901        -0.5666
     44 C18        21.9070   31.7010   22.0810 C.3       1 901        -0.0089
     45 C34        21.9880   32.7600   23.1930 C.3       1 901        -0.0030
     46 S1         21.0650   32.2890   24.6740 S.3       1 901        -0.1639
     47 C35        19.6410   31.7210   25.0580 C.3       1 901        -0.0181
     48 H1         32.2843   26.6294   20.5654 H         1 901         0.0527
     49 H2         31.9811   24.4234   19.5124 H         1 901         0.0601
     50 H3         33.8198   22.7515   19.5259 H         1 901         0.0505
     51 H4         35.9994   23.3036   20.5589 H         1 901         0.0614
     52 H5         32.0841   28.7464   22.2131 H         1 901         0.0488
     53 H6         30.9354   30.6394   21.1338 H         1 901         0.0468
     54 H7         34.3805   30.9977   18.4802 H         1 901         0.0462
     55 H8         35.8263   28.4411   18.4418 H         1 901         0.0399
     56 H9         36.2746   28.0948   20.1465 H         1 901         0.0399
     57 H10        37.9808   29.4948   19.0357 H         1 901         0.0249
     58 H11        37.1860   30.3922   20.3735 H         1 901         0.0249
     59 H12        36.7377   30.7384   18.6688 H         1 901         0.0249
     60 H13        32.7982   32.8576   18.3858 H         1 901         0.0449
     61 H14        31.2957   32.9081   19.3689 H         1 901         0.0449
     62 H15        31.9209   30.6811   17.3925 H         1 901         0.0821
     63 H16        31.4179   31.5678   15.7804 H         1 901         0.1884
     64 H17        30.8678   35.3392   15.0519 H         1 901         0.0467
     65 H18        31.6846   35.0807   16.6307 H         1 901         0.0467
     66 H19        29.9135   34.8202   16.4824 H         1 901         0.0467
     67 H20        28.6609   32.0508   18.1385 H         1 901         0.1851
     68 H21        28.0018   29.1882   18.5079 H         1 901         0.0520
     69 H22        27.1072   30.1751   17.3028 H         1 901         0.0520
     70 H23        25.8353   30.1314   19.3807 H         1 901         0.0286
     71 H24        26.5005   31.7816   19.1341 H         1 901         0.0286
     72 H25        28.3196   31.2943   20.7545 H         1 901         0.0290
     73 H26        27.6642   29.6394   20.9965 H         1 901         0.0290
     74 H27        26.0530   32.1638   21.5956 H         1 901         0.0502
     75 H28        27.1200   31.3755   22.8067 H         1 901         0.0502
     76 H29        24.4128   32.0026   21.9144 H         1 901         0.1875
     77 H30        22.7620   30.1048   23.2697 H         1 901         0.0726
     78 H31        20.8854   31.2935   22.0635 H         1 901         0.0313
     79 H32        22.1234   32.1899   21.1197 H         1 901         0.0313
     80 H33        21.5780   33.7057   22.8089 H         1 901         0.0378
     81 H34        23.0438   32.9025   23.4669 H         1 901         0.0378
     82 H35        19.5748   31.6050   26.1499 H         1 901         0.0340
     83 H36        19.4940   30.7433   24.5758 H         1 901         0.0340
     84 H37        18.8631   32.4194   24.7157 H         1 901         0.0340
@<TRIPOS>BOND
     1    1    2 ar 
     2    2    3 ar 
     3    2    4 1  
     4    4    5 2  
     5    4    6 am 
     6    6    7 1  
     7    6   16 1  
     8    7    8 ar 
     9    7   12 ar 
    10    8    9 ar 
    11    9   10 ar 
    12   10   11 ar 
    13   11   12 ar 
    14   12   13 1  
    15   13   14 ar 
    16   13   15 ar 
    17   16   17 ar 
    18   16   21 ar 
    19   17   18 ar 
    20   18   19 ar 
    21   19   20 ar 
    22   19   24 1  
    23   20   21 ar 
    24   21   22 1  
    25   22   23 1  
    26   24   25 1  
    27   25   26 1  
    28   25   30 1  
    29   26   27 am 
    30   27   28 2  
    31   27   29 1  
    32   30   31 2  
    33   30   32 am 
    34   32   33 1  
    35   33   34 1  
    36   34   35 1  
    37   35   36 1  
    38   36   37 1  
    39   37   38 2  
    40   37   39 am 
    41   39   40 1  
    42   40   41 1  
    43   40   44 1  
    44   41   42 ar 
    45   41   43 ar 
    46   44   45 1  
    47   45   46 1  
    48   46   47 1  
    49    8   48 1  
    50    9   49 1  
    51   10   50 1  
    52   11   51 1  
    53   17   52 1  
    54   18   53 1  
    55   20   54 1  
    56   22   55 1  
    57   22   56 1  
    58   23   57 1  
    59   23   58 1  
    60   23   59 1  
    61   24   60 1  
    62   24   61 1  
    63   25   62 1  
    64   26   63 1  
    65   29   64 1  
    66   29   65 1  
    67   29   66 1  
    68   32   67 1  
    69   33   68 1  
    70   33   69 1  
    71   34   70 1  
    72   34   71 1  
    73   35   72 1  
    74   35   73 1  
    75   36   74 1  
    76   36   75 1  
    77   39   76 1  
    78   40   77 1  
    79   44   78 1  
    80   44   79 1  
    81   45   80 1  
    82   45   81 1  
    83   47   82 1  
    84   47   83 1  
    85   47   84 1  
@<TRIPOS>SUBSTRUCTURE
     1 901         1

