### 
### Created by X-TOOL on Mon Sep 10 21:12:50 2018
### 

@<TRIPOS>MOLECULE
1nzq_ligand
   68    70     1     0     0
SMALL
GAST_HUCK


@<TRIPOS>ATOM
      1 N          10.1960   21.2160   24.3680 N.pl3     1 162        -0.2716
      2 C          11.0810   22.1810   24.0600 C.cat     1 162         0.2521
      3 N1         11.0320   23.3550   24.7010 N.pl3     1 162        -0.2716
      4 C1         12.0940   21.9700   23.0090 C.2       1 162         0.0987
      5 N2         12.5350   20.7590   22.4820 N.pl3     1 162        -0.2880
      6 C2         12.0890   19.4010   22.8550 C.3       1 162         0.0395
      7 C3         13.4670   21.0240   21.5430 C.2       1 162         0.0124
      8 C4         12.7820   22.9660   22.3700 C.2       1 162        -0.0759
      9 C5         13.6410   22.3610   21.4520 C.2       1 162        -0.0483
     10 C6         14.6040   23.0750   20.5230 C.3       1 162         0.0450
     11 N3         16.0090   22.8310   20.9630 N.am      1 162        -0.2784
     12 C7         16.6940   21.7070   20.5950 C.2       1 162         0.2112
     13 O          16.1710   20.8500   19.8900 O.2       1 162        -0.3919
     14 C8         18.1070   21.4900   21.0880 C.3       1 162         0.1523
     15 C9         19.0890   21.5310   19.9410 C.2       1 162        -0.0526
     16 C10        19.7600   20.4080   19.8760 C.2       1 162        -0.0712
     17 C11        19.3130   19.4720   20.9700 C.3       1 162         0.0564
     18 N4         18.1970   20.1370   21.6970 N.am      1 162        -0.2313
     19 C12        17.4130   19.6270   22.7030 C.2       1 162         0.2325
     20 O1         16.5320   20.3120   23.1870 O.2       1 162        -0.3902
     21 C13        17.6080   18.2190   23.2290 C.3       1 162         0.0688
     22 C14        18.2220   18.2510   24.6530 C.3       1 162         0.0108
     23 C15        19.6100   18.9040   24.6510 C.3       1 162        -0.0338
     24 C16        19.8920   19.5320   26.0300 C.3       1 162        -0.0499
     25 C17        21.2730   20.2400   26.0150 C.3       1 162        -0.0528
     26 C18        22.3940   19.2370   25.6420 C.3       1 162        -0.0530
     27 C19        22.0830   18.5470   24.2870 C.3       1 162        -0.0528
     28 C20        20.6970   17.8530   24.3330 C.3       1 162        -0.0499
     29 N5         16.2780   17.5780   23.2610 N.4       1 162         0.2577
     30 C21        16.3760   16.1250   23.4350 C.3       1 162         0.0214
     31 C22        14.9790   15.5680   23.5110 C.2       1 162         0.0813
     32 O2         14.8070   14.3900   23.7850 O.co2     1 162        -0.5645
     33 O3         14.0160   16.2950   23.2970 O.co2     1 162        -0.5645
     34 H1         10.2296   20.3109   23.8776 H         1 162         0.3180
     35 H2          9.4848   21.3822   25.0942 H         1 162         0.3180
     36 H3         11.7074   24.0971   24.4688 H         1 162         0.3180
     37 H4         10.3188   23.5163   25.4265 H         1 162         0.3180
     38 H5         12.6322   18.6582   22.2523 H         1 162         0.0580
     39 H6         11.0091   19.3056   22.6686 H         1 162         0.0580
     40 H7         12.2936   19.2279   23.9218 H         1 162         0.0580
     41 H8         13.9957   20.2779   20.9516 H         1 162         0.0684
     42 H9         12.6779   24.0356   22.5461 H         1 162         0.0251
     43 H10        14.3977   24.1553   20.5438 H         1 162         0.0606
     44 H11        14.4715   22.6961   19.4989 H         1 162         0.0606
     45 H12        16.4616   23.5084   21.5429 H         1 162         0.1870
     46 H13        18.3630   22.2615   21.8291 H         1 162         0.0924
     47 H14        19.2204   22.3742   19.2644 H         1 162         0.0494
     48 H15        20.5292   20.1831   19.1387 H         1 162         0.0482
     49 H16        20.1466   19.2751   21.6601 H         1 162         0.0653
     50 H17        18.9655   18.5235   20.5346 H         1 162         0.0653
     51 H18        18.2770   17.6595   22.5586 H         1 162         0.1099
     52 H19        18.3122   17.2204   25.0268 H         1 162         0.0348
     53 H20        17.5578   18.8248   25.3160 H         1 162         0.0348
     54 H21        19.6350   19.6911   23.8830 H         1 162         0.0304
     55 H22        19.8949   18.7430   26.7965 H         1 162         0.0268
     56 H23        19.1077   20.2671   26.2634 H         1 162         0.0268
     57 H24        21.4771   20.6562   27.0125 H         1 162         0.0265
     58 H25        21.2545   21.0536   25.2749 H         1 162         0.0265
     59 H26        22.4700   18.4714   26.4281 H         1 162         0.0265
     60 H27        23.3493   19.7763   25.5618 H         1 162         0.0265
     61 H28        22.8574   17.7941   24.0786 H         1 162         0.0265
     62 H29        22.0822   19.3031   23.4881 H         1 162         0.0265
     63 H30        20.4858   17.3893   23.3582 H         1 162         0.0268
     64 H31        20.6995   17.0789   25.1145 H         1 162         0.0268
     65 H32        15.8021   17.7711   22.3937 H         1 162         0.2049
     66 H33        15.7488   17.9631   24.0276 H         1 162         0.2049
     67 H34        16.9196   15.8964   24.3636 H         1 162         0.0989
     68 H35        16.9080   15.6821   22.5802 H         1 162         0.0989
@<TRIPOS>BOND
     1    1    2 ar 
     2    2    3 ar 
     3    2    4 1  
     4    4    5 1  
     5    4    8 2  
     6    5    6 1  
     7    5    7 1  
     8    7    9 2  
     9    8    9 1  
    10    9   10 1  
    11   10   11 1  
    12   11   12 am 
    13   12   13 2  
    14   12   14 1  
    15   14   15 1  
    16   14   18 1  
    17   15   16 2  
    18   16   17 1  
    19   17   18 1  
    20   18   19 am 
    21   19   20 2  
    22   19   21 1  
    23   21   22 1  
    24   21   29 1  
    25   22   23 1  
    26   23   24 1  
    27   23   28 1  
    28   24   25 1  
    29   25   26 1  
    30   26   27 1  
    31   27   28 1  
    32   29   30 1  
    33   30   31 1  
    34   31   32 ar 
    35   31   33 ar 
    36    1   34 1  
    37    1   35 1  
    38    3   36 1  
    39    3   37 1  
    40    6   38 1  
    41    6   39 1  
    42    6   40 1  
    43    7   41 1  
    44    8   42 1  
    45   10   43 1  
    46   10   44 1  
    47   11   45 1  
    48   14   46 1  
    49   15   47 1  
    50   16   48 1  
    51   17   49 1  
    52   17   50 1  
    53   21   51 1  
    54   22   52 1  
    55   22   53 1  
    56   23   54 1  
    57   24   55 1  
    58   24   56 1  
    59   25   57 1  
    60   25   58 1  
    61   26   59 1  
    62   26   60 1  
    63   27   61 1  
    64   27   62 1  
    65   28   63 1  
    66   28   64 1  
    67   29   65 1  
    68   29   66 1  
    69   30   67 1  
    70   30   68 1  
@<TRIPOS>SUBSTRUCTURE
     1 162         1

