### 
### Created by X-TOOL on Mon Sep 10 21:12:50 2018
### 

@<TRIPOS>MOLECULE
1o0d_ligand
   68    70     1     0     0
SMALL
GAST_HUCK


@<TRIPOS>ATOM
      1 N          10.2890   23.3880   24.1280 N.pl3     1 163        -0.2727
      2 C          10.9060   22.2110   24.0120 C.cat     1 163         0.2470
      3 N1         10.7810   21.2900   24.9610 N.pl3     1 163        -0.2727
      4 C1         11.7380   21.9180   22.8080 C.2       1 163         0.0923
      5 N2         12.6610   22.7550   22.1970 N.pl3     1 163        -0.2755
      6 C2         13.0120   24.1320   22.6350 C.3       1 163         0.0410
      7 C3         11.7240   20.7530   22.0930 C.2       1 163        -0.0932
      8 C4         12.6380   20.8830   21.0480 C.2       1 163        -0.0867
      9 C5         13.1940   22.1020   21.1310 C.2       1 163         0.0562
     10 C6         14.2400   22.6440   20.1860 C.3       1 163         0.0825
     11 N3         15.5650   22.4780   20.8110 N.am      1 163        -0.2713
     12 C7         16.4810   21.5910   20.3380 C.2       1 163         0.2119
     13 O          16.2410   20.8910   19.3670 O.2       1 163        -0.3919
     14 C8         17.8170   21.4760   21.0540 C.3       1 163         0.1524
     15 C9         18.9750   21.6320   20.0990 C.2       1 163        -0.0526
     16 C10        19.6660   20.5270   20.0440 C.2       1 163        -0.0712
     17 C11        19.0570   19.4920   20.9520 C.3       1 163         0.0564
     18 N4         17.9560   20.1500   21.6980 N.am      1 163        -0.2313
     19 C12        17.2280   19.6440   22.7510 C.2       1 163         0.2325
     20 O1         16.3490   20.3130   23.2630 O.2       1 163        -0.3902
     21 C13        17.5060   18.2500   23.2910 C.3       1 163         0.0688
     22 C14        18.1890   18.3340   24.6740 C.3       1 163         0.0108
     23 C15        19.6680   18.7370   24.5350 C.3       1 163        -0.0338
     24 C16        20.1410   19.4300   25.8330 C.3       1 163        -0.0499
     25 C17        21.6290   19.8410   25.7070 C.3       1 163        -0.0528
     26 C18        22.5080   18.6000   25.4120 C.3       1 163        -0.0530
     27 C19        22.0220   17.8880   24.1260 C.3       1 163        -0.0528
     28 C20        20.5360   17.4820   24.2680 C.3       1 163        -0.0499
     29 N5         16.2410   17.5120   23.4180 N.4       1 163         0.2577
     30 C21        15.7640   16.6570   22.3240 C.3       1 163         0.0214
     31 C22        14.7640   15.6560   22.8530 C.2       1 163         0.0813
     32 O2         14.7490   15.3700   24.0400 O.co2     1 163        -0.5645
     33 O3         13.9700   15.1290   22.0920 O.co2     1 163        -0.5645
     34 H1         10.3902   24.0976   23.3884 H         1 163         0.3179
     35 H2          9.7114   23.5872   24.9572 H         1 163         0.3179
     36 H3         11.2602   20.3833   24.8650 H         1 163         0.3179
     37 H4         10.2049   21.4825   25.7928 H         1 163         0.3179
     38 H5         12.4219   24.3952   23.5252 H         1 163         0.0578
     39 H6         12.7901   24.8422   21.8249 H         1 163         0.0578
     40 H7         14.0836   24.1772   22.8790 H         1 163         0.0578
     41 H8         11.1087   19.8792   22.3022 H         1 163         0.0244
     42 H9         12.8617   20.1277   20.2960 H         1 163         0.0175
     43 H10        14.0507   23.7106   19.9950 H         1 163         0.0693
     44 H11        14.2054   22.0897   19.2365 H         1 163         0.0693
     45 H12        15.7975   23.0354   21.6081 H         1 163         0.1879
     46 H13        17.8714   22.2624   21.8212 H         1 163         0.0924
     47 H14        19.2012   22.5368   19.5367 H         1 163         0.0494
     48 H15        20.5533   20.3754   19.4311 H         1 163         0.0482
     49 H16        19.8149   19.1154   21.6547 H         1 163         0.0653
     50 H17        18.6610   18.6559   20.3570 H         1 163         0.0653
     51 H18        18.1692   17.7187   22.5925 H         1 163         0.1099
     52 H19        18.1285   17.3517   25.1654 H         1 163         0.0348
     53 H20        17.6680   19.0837   25.2876 H         1 163         0.0348
     54 H21        19.7744   19.4354   23.6919 H         1 163         0.0304
     55 H22        20.0260   18.7358   26.6785 H         1 163         0.0268
     56 H23        19.5298   20.3273   26.0096 H         1 163         0.0268
     57 H24        21.9586   20.3030   26.6493 H         1 163         0.0265
     58 H25        21.7369   20.5651   24.8861 H         1 163         0.0265
     59 H26        22.4446   17.9012   26.2592 H         1 163         0.0265
     60 H27        23.5520   18.9190   25.2771 H         1 163         0.0265
     61 H28        22.6301   16.9870   23.9578 H         1 163         0.0265
     62 H29        22.1319   18.5697   23.2698 H         1 163         0.0265
     63 H30        20.2003   16.9975   23.3393 H         1 163         0.0268
     64 H31        20.4288   16.7794   25.1076 H         1 163         0.0268
     65 H32        15.5215   18.1984   23.5827 H         1 163         0.2049
     66 H33        16.3323   16.9197   24.2285 H         1 163         0.2049
     67 H34        16.6167   16.1215   21.8811 H         1 163         0.0989
     68 H35        15.2839   17.2811   21.5559 H         1 163         0.0989
@<TRIPOS>BOND
     1    1    2 ar 
     2    2    3 ar 
     3    2    4 1  
     4    4    5 1  
     5    4    7 2  
     6    5    6 1  
     7    5    9 1  
     8    7    8 1  
     9    8    9 2  
    10    9   10 1  
    11   10   11 1  
    12   11   12 am 
    13   12   13 2  
    14   12   14 1  
    15   14   15 1  
    16   14   18 1  
    17   15   16 2  
    18   16   17 1  
    19   17   18 1  
    20   18   19 am 
    21   19   20 2  
    22   19   21 1  
    23   21   22 1  
    24   21   29 1  
    25   22   23 1  
    26   23   24 1  
    27   23   28 1  
    28   24   25 1  
    29   25   26 1  
    30   26   27 1  
    31   27   28 1  
    32   29   30 1  
    33   30   31 1  
    34   31   32 ar 
    35   31   33 ar 
    36    1   34 1  
    37    1   35 1  
    38    3   36 1  
    39    3   37 1  
    40    6   38 1  
    41    6   39 1  
    42    6   40 1  
    43    7   41 1  
    44    8   42 1  
    45   10   43 1  
    46   10   44 1  
    47   11   45 1  
    48   14   46 1  
    49   15   47 1  
    50   16   48 1  
    51   17   49 1  
    52   17   50 1  
    53   21   51 1  
    54   22   52 1  
    55   22   53 1  
    56   23   54 1  
    57   24   55 1  
    58   24   56 1  
    59   25   57 1  
    60   25   58 1  
    61   26   59 1  
    62   26   60 1  
    63   27   61 1  
    64   27   62 1  
    65   28   63 1  
    66   28   64 1  
    67   29   65 1  
    68   29   66 1  
    69   30   67 1  
    70   30   68 1  
@<TRIPOS>SUBSTRUCTURE
     1 163         1

