### 
### Created by X-TOOL on Mon Sep 10 21:12:50 2018
### 

@<TRIPOS>MOLECULE
1o2g_ligand
   43    46     1     0     0
SMALL
GAST_HUCK


@<TRIPOS>ATOM
      1 C1         11.5100  -11.6470   22.5770 C.ar      1 696         0.0081
      2 C2         11.9960  -10.3580   22.1890 C.ar      1 696        -0.0716
      3 C3         12.8590  -10.2060   21.1080 C.ar      1 696        -0.0437
      4 C4         13.2380  -11.3410   20.4050 C.ar      1 696         0.0625
      5 C5         12.7680  -12.5750   20.7860 C.ar      1 696        -0.0269
      6 C6         11.9060  -12.7540   21.8260 C.ar      1 696        -0.0699
      7 C7         10.6970  -11.7620   23.7050 C.cat     1 696         0.2284
      8 N1          9.9910  -12.8580   23.9020 N.pl3     1 696        -0.2733
      9 N2         10.5960  -10.7460   24.5320 N.pl3     1 696        -0.2733
     10 N3         13.9860  -11.4730   19.3660 N.pl3     1 696        -0.2762
     11 CN4        13.1510  -13.6000   19.8200 C.2       1 696        -0.0577
     12 C8         13.9760  -12.7630   19.0070 C.2       1 696         0.0606
     13 C1'        14.8490  -13.3090   18.0820 C.ar      1 696         0.0381
     14 C2'        14.8170  -14.7040   17.8360 C.ar      1 696        -0.0591
     15 C3'        15.6500  -15.2640   16.8830 C.ar      1 696        -0.0712
     16 C4'        16.5440  -14.4630   16.1910 C.ar      1 696        -0.0615
     17 C5'        16.6460  -13.0830   16.4510 C.ar      1 696         0.0146
     18 C6'        15.7820  -12.5170   17.4160 C.ar      1 696         0.1121
     19 O6'        15.7850  -11.1630   17.6660 O.3       1 696        -0.3267
     20 C1''       17.6360  -12.3600   15.7350 C.ar      1 696        -0.0215
     21 C2''       17.3410  -11.2050   15.0030 C.ar      1 696        -0.0570
     22 C3''       18.3400  -10.5460   14.2720 C.ar      1 696        -0.0632
     23 C4''       19.6550  -11.0370   14.2590 C.ar      1 696        -0.0635
     24 C5''       19.9650  -12.1780   14.9970 C.ar      1 696        -0.0632
     25 C6''       18.9680  -12.8340   15.7260 C.ar      1 696        -0.0570
     26 H1         11.6857   -9.4828   22.7483 H         1 696         0.0528
     27 H2         13.2257   -9.2267   20.8225 H         1 696         0.0539
     28 H3         11.5331  -13.7430   22.0665 H         1 696         0.0531
     29 H4          9.3913  -12.9415   24.7352 H         1 696         0.3180
     30 H5         10.0392  -13.6307   23.2227 H         1 696         0.3180
     31 H6         11.1511   -9.8935   24.3707 H         1 696         0.3180
     32 H7          9.9617  -10.8020   25.3416 H         1 696         0.3180
     33 H8         14.5025  -10.7178   18.8929 H         1 696         0.2230
     34 H9         12.8930  -14.6553   19.7439 H         1 696         0.0294
     35 H10        14.1372  -15.3354   18.3966 H         1 696         0.0593
     36 H11        15.6030  -16.3275   16.6784 H         1 696         0.0530
     37 H12        17.1785  -14.9083   15.4332 H         1 696         0.0593
     38 H13        15.1449  -10.9650   18.3396 H         1 696         0.2521
     39 H14        16.3295  -10.8153   15.0008 H         1 696         0.0606
     40 H15        18.0948   -9.6504   13.7126 H         1 696         0.0613
     41 H16        20.4216  -10.5339   13.6809 H         1 696         0.0603
     42 H17        20.9804  -12.5575   15.0059 H         1 696         0.0613
     43 H18        19.2210  -13.7217   16.2943 H         1 696         0.0606
@<TRIPOS>BOND
     1    1    2 ar 
     2    1    6 ar 
     3    1    7 1  
     4    2    3 ar 
     5    2   26 1  
     6    3    4 ar 
     7    3   27 1  
     8    4    5 ar 
     9    4   10 1  
    10    5    6 ar 
    11    5   11 1  
    12    6   28 1  
    13    7    8 ar 
    14    7    9 ar 
    15    8   29 1  
    16    8   30 1  
    17    9   31 1  
    18    9   32 1  
    19   10   12 1  
    20   10   33 1  
    21   11   12 2  
    22   11   34 1  
    23   12   13 1  
    24   13   14 ar 
    25   13   18 ar 
    26   14   15 ar 
    27   14   35 1  
    28   15   16 ar 
    29   15   36 1  
    30   16   17 ar 
    31   16   37 1  
    32   17   18 ar 
    33   17   20 1  
    34   18   19 1  
    35   20   21 ar 
    36   20   25 ar 
    37   21   22 ar 
    38   19   38 1  
    39   22   23 ar 
    40   21   39 1  
    41   23   24 ar 
    42   22   40 1  
    43   24   25 ar 
    44   23   41 1  
    45   24   42 1  
    46   25   43 1  
@<TRIPOS>SUBSTRUCTURE
     1 696         1

