### 
### Created by X-TOOL on Mon Sep 10 21:12:50 2018
### 

@<TRIPOS>MOLECULE
1o2h_ligand
   47    50     1     0     0
SMALL
GAST_HUCK


@<TRIPOS>ATOM
      1 C1         44.1400   -3.1040   25.9440 C.ar      1 CR3         0.0081
      2 C2         44.5190   -1.7550   25.9650 C.ar      1 CR3        -0.0716
      3 C3         44.4780   -1.0230   27.1310 C.ar      1 CR3        -0.0437
      4 C4         44.0620   -1.6440   28.2700 C.ar      1 CR3         0.0624
      5 C5         43.6940   -2.9320   28.3020 C.ar      1 CR3        -0.0271
      6 C6         43.7190   -3.7100   27.1470 C.ar      1 CR3        -0.0700
      7 C7         44.1870   -3.7960   24.7220 C.cat     1 CR3         0.2284
      8 N1         43.7630   -5.0340   24.6370 N.pl3     1 CR3        -0.2733
      9 N2         44.6520   -3.1710   23.6660 N.pl3     1 CR3        -0.2733
     10 N3         43.9310   -1.1950   29.4660 N.pl3     1 CR3        -0.2765
     11 CN4        43.3260   -3.2990   29.5100 C.2       1 CR3        -0.0581
     12 C8         43.4970   -2.1720   30.2060 C.2       1 CR3         0.0574
     13 C1'        43.2730   -2.0230   31.5870 C.ar      1 CR3         0.0278
     14 C2'        42.9380   -3.1330   32.3600 C.ar      1 CR3        -0.0706
     15 C3'        42.7530   -3.0090   33.7340 C.ar      1 CR3        -0.0807
     16 C4'        42.9010   -1.7850   34.3510 C.ar      1 CR3        -0.0409
     17 C5'        43.2380   -0.6650   33.6030 C.ar      1 CR3         0.1217
     18 O5'        43.4200    0.5850   34.1790 O.3       1 CR3        -0.3187
     19 C6'        43.4190   -0.7770   32.2330 C.ar      1 CR3         0.1295
     20 O6'        43.7230    0.3890   31.5520 O.3       1 CR3        -0.3336
     21 C1''       43.2820    2.3340   35.7960 C.3       1 CR3        -0.0226
     22 C2''       43.6090    0.8510   35.5750 C.3       1 CR3         0.0786
     23 C3''       45.1250    0.7100   35.8680 C.3       1 CR3        -0.0226
     24 C4''       45.5920    2.0560   36.4380 C.3       1 CR3        -0.0503
     25 C5''       44.3290    2.8400   36.7720 C.3       1 CR3        -0.0503
     26 H1         44.8498   -1.2798   25.0486 H         1 CR3         0.0528
     27 H2         44.7694    0.0210   27.1421 H         1 CR3         0.0539
     28 H3         43.4231   -4.7526   27.1714 H         1 CR3         0.0531
     29 H4         43.8024   -5.5311   23.7358 H         1 CR3         0.3180
     30 H5         43.3906   -5.5093   25.4715 H         1 CR3         0.3180
     31 H6         44.9818   -2.1986   23.7468 H         1 CR3         0.3180
     32 H7         44.6872   -3.6528   22.7563 H         1 CR3         0.3180
     33 H8         44.1330   -0.2356   29.7816 H         1 CR3         0.2230
     34 H9         42.9732   -4.2702   29.8538 H         1 CR3         0.0293
     35 H10        42.8205   -4.1014   31.8872 H         1 CR3         0.0500
     36 H11        42.4908   -3.8806   34.3228 H         1 CR3         0.0500
     37 H12        42.7541   -1.6970   35.4214 H         1 CR3         0.0512
     38 H13        44.5326    0.7513   31.8923 H         1 CR3         0.2464
     39 H14        43.3426    2.8864   34.8467 H         1 CR3         0.0294
     40 H15        42.2739    2.4459   36.2216 H         1 CR3         0.0294
     41 H16        42.9986    0.1895   36.2072 H         1 CR3         0.0645
     42 H17        45.6706    0.4815   34.9406 H         1 CR3         0.0294
     43 H18        45.2963   -0.0919   36.6012 H         1 CR3         0.0294
     44 H19        46.1909    2.5985   35.6917 H         1 CR3         0.0266
     45 H20        46.1930    1.8974   37.3455 H         1 CR3         0.0266
     46 H21        44.4960    3.9186   36.6348 H         1 CR3         0.0266
     47 H22        44.0166    2.6462   37.8087 H         1 CR3         0.0266
@<TRIPOS>BOND
     1    1    2 ar 
     2    1    6 ar 
     3    1    7 1  
     4    2    3 ar 
     5    3    4 ar 
     6    4    5 ar 
     7    4   10 1  
     8    5    6 ar 
     9    5   11 1  
    10    7    8 ar 
    11    7    9 ar 
    12   10   12 1  
    13   12   11 2  
    14   12   13 1  
    15   13   14 ar 
    16   13   19 ar 
    17   14   15 ar 
    18   15   16 ar 
    19   16   17 ar 
    20   17   18 1  
    21   17   19 ar 
    22   18   22 1  
    23   19   20 1  
    24   22   23 1  
    25   23   24 1  
    26   24   25 1  
    27   25   21 1  
    28   22   21 1  
    29    2   26 1  
    30    3   27 1  
    31    6   28 1  
    32    8   29 1  
    33    8   30 1  
    34    9   31 1  
    35    9   32 1  
    36   10   33 1  
    37   11   34 1  
    38   14   35 1  
    39   15   36 1  
    40   16   37 1  
    41   20   38 1  
    42   21   39 1  
    43   21   40 1  
    44   22   41 1  
    45   23   42 1  
    46   23   43 1  
    47   24   44 1  
    48   24   45 1  
    49   25   46 1  
    50   25   47 1  
@<TRIPOS>SUBSTRUCTURE
     1 CR3         1

