### 
### Created by X-TOOL on Mon Sep 10 21:12:49 2018
### 

@<TRIPOS>MOLECULE
1o2j_ligand
   45    47     1     0     0
SMALL
GAST_HUCK


@<TRIPOS>ATOM
      1 C1         44.4610   -3.0870   26.2460 C.ar      1 656         0.0108
      2 C2         44.8400   -1.7260   26.2880 C.ar      1 656        -0.0697
      3 C3         44.8030   -0.9970   27.4770 C.ar      1 656        -0.0401
      4 C4         44.3900   -1.6430   28.6030 C.ar      1 656         0.0805
      5 C5         44.0230   -2.9290   28.6190 C.ar      1 656         0.0293
      6 C6         44.0470   -3.6950   27.4480 C.ar      1 656        -0.0569
      7 C7         44.5060   -3.7930   25.0180 C.cat     1 656         0.2290
      8 N1         44.2940   -5.0920   24.9750 N.pl3     1 656        -0.2732
      9 N2         44.7510   -3.1160   23.9130 N.pl3     1 656        -0.2732
     10 N3         44.2630   -1.2310   29.8090 N.pl3     1 656        -0.2513
     11 N4         43.6650   -3.3360   29.8220 N.2       1 656        -0.3109
     12 C8         43.8390   -2.2260   30.5160 C.2       1 656         0.1334
     13 C1'        43.6170   -2.1050   31.8900 C.ar      1 656         0.0569
     14 C2'        43.2830   -3.2260   32.6440 C.ar      1 656        -0.0627
     15 C3'        43.0740   -3.1190   34.0150 C.ar      1 656        -0.0761
     16 C4'        43.1990   -1.8980   34.6380 C.ar      1 656        -0.0368
     17 C5'        43.5340   -0.7690   33.9010 C.ar      1 656         0.1262
     18 C6'        43.7390   -0.8670   32.5360 C.ar      1 656         0.1382
     19 O6'        44.0500    0.2870   31.8360 O.3       1 656        -0.3301
     20 O5'        43.6980    0.4700   34.4900 O.3       1 656        -0.3204
     21 C10        43.5500    0.7790   35.8620 C.3       1 656         0.0702
     22 C20        44.0610    2.2330   36.0550 C.3       1 656        -0.0193
     23 C30        42.8710    3.0850   36.4270 C.3       1 656        -0.0602
     24 C40        45.0200    2.2750   37.2680 C.3       1 656        -0.0602
     25 H1         45.1665   -1.2381   25.3767 H         1 656         0.0541
     26 H2         45.0928    0.0472   27.5039 H         1 656         0.0544
     27 H3         43.7522   -4.7380   27.4653 H         1 656         0.0547
     28 H4         44.3303   -5.5902   24.0742 H         1 656         0.3180
     29 H5         44.0919   -5.6098   25.8421 H         1 656         0.3180
     30 H6         44.9155   -2.1002   23.9572 H         1 656         0.3180
     31 H7         44.7778   -3.6031   23.0058 H         1 656         0.3180
     32 H8         44.4623   -0.2806   30.1524 H         1 656         0.2296
     33 H9         43.1849   -4.1904   32.1589 H         1 656         0.0540
     34 H10        42.8125   -3.9978   34.5932 H         1 656         0.0511
     35 H11        43.0356   -1.8171   35.7066 H         1 656         0.0544
     36 H12        44.1636    0.0773   30.9164 H         1 656         0.2481
     37 H13        44.1458    0.0846   36.4725 H         1 656         0.0611
     38 H14        42.4917    0.7082   36.1536 H         1 656         0.0611
     39 H15        44.5542    2.6022   35.1437 H         1 656         0.0321
     40 H16        43.1963    4.1257   36.5722 H         1 656         0.0233
     41 H17        42.4261    2.7065   37.3591 H         1 656         0.0233
     42 H18        42.1239    3.0435   35.6207 H         1 656         0.0233
     43 H19        45.9111    1.6672   37.0521 H         1 656         0.0233
     44 H20        44.5078    1.8728   38.1545 H         1 656         0.0233
     45 H21        45.3232    3.3148   37.4599 H         1 656         0.0233
@<TRIPOS>BOND
     1    1    2 ar 
     2    1    6 ar 
     3    1    7 1  
     4    2    3 ar 
     5    3    4 ar 
     6    4    5 ar 
     7    4   10 1  
     8    5    6 ar 
     9    5   11 1  
    10    7    8 ar 
    11    7    9 ar 
    12   10   12 1  
    13   11   12 2  
    14   12   13 1  
    15   13   14 ar 
    16   13   18 ar 
    17   14   15 ar 
    18   15   16 ar 
    19   16   17 ar 
    20   17   18 ar 
    21   17   20 1  
    22   18   19 1  
    23   20   21 1  
    24   21   22 1  
    25   22   23 1  
    26   22   24 1  
    27    2   25 1  
    28    3   26 1  
    29    6   27 1  
    30    8   28 1  
    31    8   29 1  
    32    9   30 1  
    33    9   31 1  
    34   10   32 1  
    35   14   33 1  
    36   15   34 1  
    37   16   35 1  
    38   19   36 1  
    39   21   37 1  
    40   21   38 1  
    41   22   39 1  
    42   23   40 1  
    43   23   41 1  
    44   23   42 1  
    45   24   43 1  
    46   24   44 1  
    47   24   45 1  
@<TRIPOS>SUBSTRUCTURE
     1 656         1

