### 
### Created by X-TOOL on Mon Sep 10 21:12:50 2018
### 

@<TRIPOS>MOLECULE
1o2k_ligand
   45    47     1     0     0
SMALL
GAST_HUCK


@<TRIPOS>ATOM
      1 C1         44.5180   -3.0730   26.1580 C.ar      1 656         0.0108
      2 C2         44.8650   -1.7100   26.2080 C.ar      1 656        -0.0697
      3 C3         44.8360   -0.9990   27.4010 C.ar      1 656        -0.0401
      4 C4         44.4600   -1.6630   28.5280 C.ar      1 656         0.0805
      5 C5         44.1210   -2.9600   28.5480 C.ar      1 656         0.0293
      6 C6         44.1370   -3.7100   27.3730 C.ar      1 656        -0.0569
      7 C7         44.5550   -3.7540   24.9100 C.cat     1 656         0.2290
      8 N1         44.3240   -5.0440   24.8420 N.pl3     1 656        -0.2732
      9 N2         44.8120   -3.0870   23.8100 N.pl3     1 656        -0.2732
     10 N3         44.3480   -1.2540   29.7330 N.pl3     1 656        -0.2513
     11 N4         43.7970   -3.3830   29.7540 N.2       1 656        -0.3109
     12 C8         43.9590   -2.2640   30.4520 C.2       1 656         0.1334
     13 C1'        43.7580   -2.1470   31.8270 C.ar      1 656         0.0569
     14 C2'        43.3570   -3.2480   32.5640 C.ar      1 656        -0.0627
     15 C3'        43.1810   -3.1470   33.9330 C.ar      1 656        -0.0761
     16 C4'        43.4040   -1.9520   34.5810 C.ar      1 656        -0.0368
     17 C5'        43.8050   -0.8440   33.8640 C.ar      1 656         0.1262
     18 C6'        43.9770   -0.9380   32.4870 C.ar      1 656         0.1382
     19 O6'        44.3500    0.1970   31.7890 O.3       1 656        -0.3301
     20 O5'        44.0840    0.3560   34.5000 O.3       1 656        -0.3204
     21 C10        43.7120    0.7010   35.8270 C.3       1 656         0.0702
     22 C20        44.1390    2.1850   36.1070 C.3       1 656        -0.0193
     23 C30        42.8870    2.9810   36.5420 C.3       1 656        -0.0602
     24 C40        45.0470    2.2250   37.3350 C.3       1 656        -0.0602
     25 H1         45.1612   -1.2042   25.2961 H         1 656         0.0541
     26 H2         45.1042    0.0508   27.4333 H         1 656         0.0544
     27 H3         43.8643   -4.7591   27.3842 H         1 656         0.0547
     28 H4         44.3538   -5.5253   23.9318 H         1 656         0.3180
     29 H5         44.1128   -5.5753   25.6988 H         1 656         0.3180
     30 H6         44.9947   -2.0742   23.8526 H         1 656         0.3180
     31 H7         44.8311   -3.5761   22.9037 H         1 656         0.3180
     32 H8         44.5322   -0.2991   30.0723 H         1 656         0.2296
     33 H9         43.1799   -4.1945   32.0661 H         1 656         0.0540
     34 H10        42.8651   -4.0152   34.5000 H         1 656         0.0511
     35 H11        43.2644   -1.8825   35.6537 H         1 656         0.0544
     36 H12        44.4300   -0.0123   30.8658 H         1 656         0.2481
     37 H13        44.2178    0.0312   36.5380 H         1 656         0.0611
     38 H14        42.6225    0.6026   35.9422 H         1 656         0.0611
     39 H15        44.6237    2.6283   35.2246 H         1 656         0.0321
     40 H16        43.1680    4.0254   36.7428 H         1 656         0.0233
     41 H17        42.4661    2.5327   37.4541 H         1 656         0.0233
     42 H18        42.1362    2.9513   35.7386 H         1 656         0.0233
     43 H19        45.9769    1.6776   37.1214 H         1 656         0.0233
     44 H20        44.5328    1.7558   38.1867 H         1 656         0.0233
     45 H21        45.2852    3.2703   37.5810 H         1 656         0.0233
@<TRIPOS>BOND
     1    1    2 ar 
     2    1    6 ar 
     3    1    7 1  
     4    2    3 ar 
     5    2   25 1  
     6    3    4 ar 
     7    3   26 1  
     8    4    5 ar 
     9    4   10 1  
    10    5    6 ar 
    11    5   11 1  
    12    6   27 1  
    13    7    8 ar 
    14    7    9 ar 
    15    8   28 1  
    16    8   29 1  
    17    9   30 1  
    18    9   31 1  
    19   10   12 1  
    20   10   32 1  
    21   11   12 2  
    22   12   13 1  
    23   13   14 ar 
    24   13   18 ar 
    25   14   15 ar 
    26   14   33 1  
    27   15   16 ar 
    28   15   34 1  
    29   16   17 ar 
    30   16   35 1  
    31   17   18 ar 
    32   17   20 1  
    33   18   19 1  
    34   20   21 1  
    35   21   22 1  
    36   19   36 1  
    37   21   37 1  
    38   22   23 1  
    39   22   24 1  
    40   21   38 1  
    41   22   39 1  
    42   23   40 1  
    43   23   41 1  
    44   23   42 1  
    45   24   43 1  
    46   24   44 1  
    47   24   45 1  
@<TRIPOS>SUBSTRUCTURE
     1 656         1

