### 
### Created by X-TOOL on Mon Sep 10 21:12:50 2018
### 

@<TRIPOS>MOLECULE
1o2n_ligand
   42    45     1     0     0
SMALL
GAST_HUCK


@<TRIPOS>ATOM
      1 C1         44.0050   -3.0860   25.8460 C.ar      1 762         0.0246
      2 C2         43.9260   -1.6580   25.7880 C.ar      1 762         0.0323
      3 CL2        43.8690   -0.6970   24.2750 Cl        1 762        -0.0787
      4 C3         43.8260   -0.9270   26.9940 C.ar      1 762        -0.0262
      5 C4         43.8060   -1.6100   28.2000 C.ar      1 762         0.0810
      6 C5         43.8730   -2.9430   28.2680 C.ar      1 762         0.0296
      7 C6         43.9770   -3.7180   27.1020 C.ar      1 762        -0.0563
      8 C7         44.1440   -3.8730   24.6740 C.cat     1 762         0.2295
      9 N1         43.7440   -5.1240   24.5990 N.pl3     1 762        -0.2732
     10 N2         44.7180   -3.2880   23.6550 N.pl3     1 762        -0.2732
     11 N3         43.7060   -1.2310   29.4370 N.pl3     1 762        -0.2511
     12 N4         43.8160   -3.4090   29.5060 N.2       1 762        -0.3103
     13 C8         43.7390   -2.2910   30.2130 C.2       1 762         0.1367
     14 C1'        43.5740   -2.2280   31.6150 C.ar      1 762         0.0671
     15 C2'        43.2160   -3.3600   32.3690 C.ar      1 762        -0.0510
     16 C3'        43.0430   -3.2690   33.7540 C.ar      1 762        -0.0663
     17 C4'        43.2110   -2.0590   34.3970 C.ar      1 762        -0.0572
     18 C5'        43.5800   -0.9280   33.6700 C.ar      1 762         0.0195
     19 C6'        43.7540   -1.0110   32.2820 C.ar      1 762         0.1203
     20 O6'        44.0890    0.1190   31.5480 O.3       1 762        -0.3234
     21 C1''       43.7660    0.2810   34.3380 C.ar      1 762        -0.0204
     22 C2''       44.7950    0.3870   35.2740 C.ar      1 762        -0.0568
     23 C3''       44.9900    1.5860   35.9620 C.ar      1 762        -0.0632
     24 C4''       44.1760    2.6770   35.7120 C.ar      1 762        -0.0634
     25 C5''       43.1740    2.5780   34.7750 C.ar      1 762        -0.0632
     26 C6''       42.9590    1.3830   34.0900 C.ar      1 762        -0.0568
     27 H1         43.7657    0.1552   26.9758 H         1 762         0.0550
     28 H2         44.0354   -4.7983   27.1695 H         1 762         0.0548
     29 H3         43.8679   -5.6527   23.7238 H         1 762         0.3180
     30 H4         43.3069   -5.5748   25.4155 H         1 762         0.3180
     31 H5         45.0254   -2.3078   23.7300 H         1 762         0.3180
     32 H6         44.8627   -3.8074   22.7774 H         1 762         0.3180
     33 H7         43.6154   -0.2567   29.7587 H         1 762         0.2295
     34 H8         43.0727   -4.3125   31.8718 H         1 762         0.0637
     35 H9         42.7762   -4.1514   34.3243 H         1 762         0.0542
     36 H10        43.0560   -1.9882   35.4675 H         1 762         0.0629
     37 H11        44.1675   -0.1128   30.6301 H         1 762         0.2537
     38 H12        45.4425   -0.4607   35.4669 H         1 762         0.0607
     39 H13        45.7837    1.6629   36.6963 H         1 762         0.0613
     40 H14        44.3273    3.6047   36.2519 H         1 762         0.0603
     41 H15        42.5459    3.4368   34.5673 H         1 762         0.0613
     42 H16        42.1592    1.3141   33.3615 H         1 762         0.0607
@<TRIPOS>BOND
     1    1    2 ar 
     2    1    7 ar 
     3    1    8 1  
     4    2    3 1  
     5    2    4 ar 
     6    4    5 ar 
     7    5    6 ar 
     8    5   11 1  
     9    6    7 ar 
    10    6   12 1  
    11    8    9 ar 
    12    8   10 ar 
    13   11   13 1  
    14   12   13 2  
    15   13   14 1  
    16   14   15 ar 
    17   14   19 ar 
    18   15   16 ar 
    19   16   17 ar 
    20   17   18 ar 
    21   18   19 ar 
    22   18   21 1  
    23   19   20 1  
    24   21   22 ar 
    25   21   26 ar 
    26   22   23 ar 
    27   23   24 ar 
    28   24   25 ar 
    29   25   26 ar 
    30    4   27 1  
    31    7   28 1  
    32    9   29 1  
    33    9   30 1  
    34   10   31 1  
    35   10   32 1  
    36   11   33 1  
    37   15   34 1  
    38   16   35 1  
    39   17   36 1  
    40   20   37 1  
    41   22   38 1  
    42   23   39 1  
    43   24   40 1  
    44   25   41 1  
    45   26   42 1  
@<TRIPOS>SUBSTRUCTURE
     1 762         1

