### 
### Created by X-TOOL on Mon Sep 10 21:12:50 2018
### 

@<TRIPOS>MOLECULE
1o2o_ligand
   45    47     1     0     0
SMALL
GAST_HUCK


@<TRIPOS>ATOM
      1 C1         44.1880   -3.1020   25.5850 C.ar      1 950         0.0450
      2 C2         44.2010   -1.6810   25.5630 C.ar      1 950         0.1246
      3 F2         44.3260   -0.9350   24.3750 F         1 950        -0.1907
      4 C3         44.0590   -0.9570   26.7430 C.ar      1 950        -0.0071
      5 C4         43.9020   -1.6370   27.9170 C.ar      1 950         0.0786
      6 C5         43.8810   -2.9730   27.9820 C.ar      1 950         0.0262
      7 C6         44.0200   -3.7470   26.8380 C.ar      1 950        -0.0573
      8 C7         44.3400   -3.8520   24.3870 C.cat     1 950         0.2298
      9 N1         43.9510   -5.1060   24.2820 N.pl3     1 950        -0.2736
     10 N2         44.9060   -3.2740   23.3690 N.pl3     1 950        -0.2736
     11 N3         43.7590   -1.2260   29.1230 N.pl3     1 950        -0.2528
     12 N4         43.7230   -3.4170   29.2050 N.2       1 950        -0.3131
     13 C8         43.6540   -2.2770   29.8770 C.2       1 950         0.1320
     14 C1'        43.4530   -2.1950   31.2690 C.ar      1 950         0.0560
     15 C2'        43.2800   -3.3680   32.0060 C.ar      1 950        -0.0630
     16 C3'        43.0790   -3.3070   33.3850 C.ar      1 950        -0.0763
     17 C4'        43.0500   -2.0990   34.0420 C.ar      1 950        -0.0370
     18 C5'        43.2200   -0.9150   33.3430 C.ar      1 950         0.1260
     19 C6'        43.4180   -0.9570   31.9570 C.ar      1 950         0.1378
     20 O6'        43.5460    0.2410   31.2890 O.3       1 950        -0.3303
     21 O5'        43.2380    0.2990   34.0160 O.3       1 950        -0.3204
     22 C10        43.3240    0.4700   35.4480 C.3       1 950         0.0702
     23 C20        43.7530    1.9590   35.8950 C.3       1 950        -0.0193
     24 C30        44.7920    1.8840   37.0500 C.3       1 950        -0.0602
     25 C40        44.3990    2.7440   34.7730 C.3       1 950        -0.0602
     26 H1         44.0728    0.1268   26.7306 H         1 950         0.0524
     27 H2         44.0005   -4.8290   26.9008 H         1 950         0.0543
     28 H3         44.0801   -5.6127   23.3946 H         1 950         0.3179
     29 H4         43.5177   -5.5799   25.0873 H         1 950         0.3179
     30 H5         45.2144   -2.2938   23.4392 H         1 950         0.3179
     31 H6         45.0460   -3.7964   22.4924 H         1 950         0.3179
     32 H7         43.7324   -0.2448   29.4352 H         1 950         0.2290
     33 H8         43.3019   -4.3291   31.5051 H         1 950         0.0538
     34 H9         42.9438   -4.2243   33.9466 H         1 950         0.0510
     35 H10        42.8930   -2.0732   35.1143 H         1 950         0.0543
     36 H11        44.2936    0.7158   31.6329 H         1 950         0.2480
     37 H12        44.0689   -0.2387   35.8389 H         1 950         0.0611
     38 H13        42.3397    0.2457   35.8849 H         1 950         0.0611
     39 H14        42.8549    2.4936   36.2379 H         1 950         0.0321
     40 H15        45.0805    2.9021   37.3503 H         1 950         0.0233
     41 H16        45.6825    1.3367   36.7072 H         1 950         0.0233
     42 H17        44.3479    1.3603   37.9093 H         1 950         0.0233
     43 H18        43.6972    2.8232   33.9296 H         1 950         0.0233
     44 H19        45.3123    2.2276   34.4427 H         1 950         0.0233
     45 H20        44.6567    3.7515   35.1314 H         1 950         0.0233
@<TRIPOS>BOND
     1    1    2 ar 
     2    1    7 ar 
     3    1    8 1  
     4    2    3 1  
     5    2    4 ar 
     6    4    5 ar 
     7    5    6 ar 
     8    5   11 1  
     9    6    7 ar 
    10    6   12 1  
    11    8    9 ar 
    12    8   10 ar 
    13   11   13 1  
    14   12   13 2  
    15   13   14 1  
    16   14   15 ar 
    17   14   19 ar 
    18   15   16 ar 
    19   16   17 ar 
    20   17   18 ar 
    21   18   19 ar 
    22   18   21 1  
    23   19   20 1  
    24   21   22 1  
    25   22   23 1  
    26   23   24 1  
    27   23   25 1  
    28    4   26 1  
    29    7   27 1  
    30    9   28 1  
    31    9   29 1  
    32   10   30 1  
    33   10   31 1  
    34   11   32 1  
    35   15   33 1  
    36   16   34 1  
    37   17   35 1  
    38   20   36 1  
    39   22   37 1  
    40   22   38 1  
    41   23   39 1  
    42   24   40 1  
    43   24   41 1  
    44   24   42 1  
    45   25   43 1  
    46   25   44 1  
    47   25   45 1  
@<TRIPOS>SUBSTRUCTURE
     1 950         1

