### 
### Created by X-TOOL on Mon Sep 10 21:12:50 2018
### 

@<TRIPOS>MOLECULE
1o2p_ligand
   45    47     1     0     0
SMALL
GAST_HUCK


@<TRIPOS>ATOM
      1 C1         43.9720   -2.9830   25.7790 C.ar      1 972         0.0246
      2 C2         43.8090   -1.5640   25.6740 C.ar      1 972         0.0323
      3 CL2        43.7880   -0.6990   24.1030 Cl        1 972        -0.0787
      4 C3         43.6090   -0.8180   26.8510 C.ar      1 972        -0.0262
      5 C4         43.5700   -1.4800   28.0670 C.ar      1 972         0.0810
      6 C5         43.7160   -2.8090   28.1770 C.ar      1 972         0.0296
      7 C6         43.9210   -3.5970   27.0460 C.ar      1 972        -0.0563
      8 C7         44.1940   -3.7910   24.6490 C.cat     1 972         0.2295
      9 N1         43.7870   -5.0460   24.6360 N.pl3     1 972        -0.2732
     10 N2         44.8350   -3.2670   23.6250 N.pl3     1 972        -0.2732
     11 N3         43.4090   -1.0610   29.2760 N.pl3     1 972        -0.2513
     12 N4         43.6480   -3.2330   29.4210 N.2       1 972        -0.3106
     13 C8         43.4560   -2.0950   30.0680 C.2       1 972         0.1335
     14 C1'        43.2590   -1.9810   31.4600 C.ar      1 972         0.0570
     15 C2'        43.1470   -3.1270   32.2600 C.ar      1 972        -0.0627
     16 C3'        42.9480   -3.0230   33.6360 C.ar      1 972        -0.0761
     17 C4'        42.8570   -1.7860   34.2280 C.ar      1 972        -0.0368
     18 C5'        42.9620   -0.6110   33.4590 C.ar      1 972         0.1262
     19 C6'        43.1610   -0.7020   32.0710 C.ar      1 972         0.1382
     20 O6'        43.2610    0.4630   31.3070 O.3       1 972        -0.3301
     21 O5'        42.8720    0.6490   34.0470 O.3       1 972        -0.3204
     22 C10        42.8820    0.8410   35.4740 C.3       1 972         0.0702
     23 C20        43.1960    2.3330   35.8900 C.3       1 972        -0.0193
     24 C30        44.2420    2.3670   37.0430 C.3       1 972        -0.0602
     25 C40        43.7830    3.1280   34.7500 C.3       1 972        -0.0602
     26 H1         43.4874    0.2582   26.8063 H         1 972         0.0550
     27 H2         44.0399   -4.6704   27.1401 H         1 972         0.0548
     28 H3         43.9525   -5.6325   23.8056 H         1 972         0.3180
     29 H4         43.3038   -5.4392   25.4562 H         1 972         0.3180
     30 H5         45.1430   -2.2847   23.6582 H         1 972         0.3180
     31 H6         45.0284   -3.8394   22.7908 H         1 972         0.3180
     32 H7         43.2682   -0.0823   29.5646 H         1 972         0.2295
     33 H8         43.2161   -4.1073   31.8024 H         1 972         0.0540
     34 H9         42.8649   -3.9193   34.2400 H         1 972         0.0511
     35 H10        42.7027   -1.7141   35.2986 H         1 972         0.0544
     36 H11        43.3931    0.2319   30.3951 H         1 972         0.2481
     37 H12        43.6495    0.1855   35.9113 H         1 972         0.0611
     38 H13        41.8943    0.5657   35.8724 H         1 972         0.0611
     39 H14        42.2618    2.8087   36.2230 H         1 972         0.0321
     40 H15        44.4487    3.4113   37.3198 H         1 972         0.0233
     41 H16        45.1726    1.8854   36.7082 H         1 972         0.0233
     42 H17        43.8437    1.8284   37.9155 H         1 972         0.0233
     43 H18        43.0777    3.1341   33.9059 H         1 972         0.0233
     44 H19        44.7308    2.6689   34.4326 H         1 972         0.0233
     45 H20        43.9683    4.1607   35.0803 H         1 972         0.0233
@<TRIPOS>BOND
     1    1    2 ar 
     2    1    7 ar 
     3    1    8 1  
     4    2    3 1  
     5    2    4 ar 
     6    4    5 ar 
     7    4   26 1  
     8    5    6 ar 
     9    5   11 1  
    10    6    7 ar 
    11    6   12 1  
    12    7   27 1  
    13    8    9 ar 
    14    8   10 ar 
    15    9   28 1  
    16    9   29 1  
    17   10   30 1  
    18   10   31 1  
    19   11   13 1  
    20   11   32 1  
    21   12   13 2  
    22   13   14 1  
    23   14   15 ar 
    24   14   19 ar 
    25   15   16 ar 
    26   15   33 1  
    27   16   17 ar 
    28   16   34 1  
    29   17   18 ar 
    30   17   35 1  
    31   18   19 ar 
    32   18   21 1  
    33   19   20 1  
    34   21   22 1  
    35   22   23 1  
    36   20   36 1  
    37   22   37 1  
    38   23   24 1  
    39   23   25 1  
    40   22   38 1  
    41   23   39 1  
    42   24   40 1  
    43   24   41 1  
    44   24   42 1  
    45   25   43 1  
    46   25   44 1  
    47   25   45 1  
@<TRIPOS>SUBSTRUCTURE
     1 972         1

