### 
### Created by X-TOOL on Mon Sep 10 21:12:49 2018
### 

@<TRIPOS>MOLECULE
1o2q_ligand
   47    50     1     0     0
SMALL
GAST_HUCK


@<TRIPOS>ATOM
      1 C1         43.9640   -3.0750   25.5290 C.ar      1 991         0.0219
      2 C2         43.8000   -1.6630   25.4310 C.ar      1 991         0.0303
      3 CL2        43.7680   -0.6590   23.9520 Cl        1 991        -0.0801
      4 C3         43.5860   -0.8950   26.5910 C.ar      1 991        -0.0299
      5 C4         43.5190   -1.5400   27.8050 C.ar      1 991         0.0629
      6 C5         43.7030   -2.8790   27.9000 C.ar      1 991        -0.0268
      7 C6         43.9140   -3.6880   26.7890 C.ar      1 991        -0.0694
      8 C7         44.2150   -3.8470   24.3760 C.cat     1 991         0.2289
      9 N1         43.7330   -5.0680   24.2340 N.pl3     1 991        -0.2733
     10 N2         44.9630   -3.2720   23.4650 N.pl3     1 991        -0.2733
     11 N3         43.3540   -1.0440   29.0030 N.pl3     1 991        -0.2764
     12 CN4        43.5970   -3.2060   29.2180 C.2       1 991        -0.0579
     13 C8         43.3790   -2.0170   29.8920 C.2       1 991         0.0575
     14 C1'        43.1930   -1.8760   31.2810 C.ar      1 991         0.0279
     15 C2'        43.0120   -3.0130   32.0980 C.ar      1 991        -0.0705
     16 C3'        42.8350   -2.8620   33.4840 C.ar      1 991        -0.0807
     17 C4'        42.8390   -1.6020   34.0650 C.ar      1 991        -0.0409
     18 C5'        43.0170   -0.4610   33.2800 C.ar      1 991         0.1217
     19 O5'        43.0550    0.8110   33.8230 O.3       1 991        -0.3187
     20 C6'        43.1920   -0.5890   31.8840 C.ar      1 991         0.1296
     21 O6'        43.3530    0.5560   31.1180 O.3       1 991        -0.3336
     22 C1''       42.5230    2.4500   35.3400 C.3       1 991        -0.0226
     23 C2''       43.1280    1.0880   35.2210 C.3       1 991         0.0786
     24 C3''       44.5850    1.1810   35.6840 C.3       1 991        -0.0226
     25 C4''       44.8640    2.6230   35.9920 C.3       1 991        -0.0503
     26 C5''       43.5380    3.3190   36.0270 C.3       1 991        -0.0503
     27 H1         43.4763    0.1817   26.5295 H         1 991         0.0545
     28 H2         44.0361   -4.7600   26.8938 H         1 991         0.0531
     29 H3         43.9352   -5.6053   23.3788 H         1 991         0.3180
     30 H4         43.1547   -5.4832   24.9784 H         1 991         0.3180
     31 H5         45.3178   -2.3172   23.6176 H         1 991         0.3180
     32 H6         45.1956   -3.7753   22.5970 H         1 991         0.3180
     33 H7         43.2243   -0.0454   29.2194 H         1 991         0.2230
     34 H8         43.6692   -4.2016   29.6534 H         1 991         0.0294
     35 H9         43.0095   -4.0029   31.6561 H         1 991         0.0500
     36 H10        42.6939   -3.7389   34.1055 H         1 991         0.0500
     37 H11        42.7030   -1.5027   35.1358 H         1 991         0.0512
     38 H12        42.5866    1.1093   31.2126 H         1 991         0.2464
     39 H13        42.2951    2.8513   34.3415 H         1 991         0.0294
     40 H14        41.5996    2.4031   35.9359 H         1 991         0.0294
     41 H15        42.5803    0.3377   35.8102 H         1 991         0.0645
     42 H16        45.2565    0.8296   34.8868 H         1 991         0.0294
     43 H17        44.7335    0.5680   36.5852 H         1 991         0.0294
     44 H18        45.5018    3.0613   35.2103 H         1 991         0.0266
     45 H19        45.3651    2.7125   36.9671 H         1 991         0.0266
     46 H20        43.6124    4.2849   35.5059 H         1 991         0.0266
     47 H21        43.2354    3.4879   37.0710 H         1 991         0.0266
@<TRIPOS>BOND
     1    1    2 ar 
     2    1    7 ar 
     3    1    8 1  
     4    2    3 1  
     5    2    4 ar 
     6    4    5 ar 
     7    5    6 ar 
     8    5   11 1  
     9    6    7 ar 
    10    6   12 1  
    11    8    9 ar 
    12    8   10 ar 
    13   11   13 1  
    14   13   12 2  
    15   13   14 1  
    16   14   15 ar 
    17   14   20 ar 
    18   15   16 ar 
    19   16   17 ar 
    20   17   18 ar 
    21   18   19 1  
    22   18   20 ar 
    23   19   23 1  
    24   20   21 1  
    25   23   24 1  
    26   24   25 1  
    27   25   26 1  
    28   26   22 1  
    29   23   22 1  
    30    4   27 1  
    31    7   28 1  
    32    9   29 1  
    33    9   30 1  
    34   10   31 1  
    35   10   32 1  
    36   11   33 1  
    37   12   34 1  
    38   15   35 1  
    39   16   36 1  
    40   17   37 1  
    41   21   38 1  
    42   22   39 1  
    43   22   40 1  
    44   23   41 1  
    45   24   42 1  
    46   24   43 1  
    47   25   44 1  
    48   25   45 1  
    49   26   46 1  
    50   26   47 1  
@<TRIPOS>SUBSTRUCTURE
     1 991         1

