### 
### Created by X-TOOL on Mon Sep 10 21:12:50 2018
### 

@<TRIPOS>MOLECULE
1o2r_ligand
   52    55     1     0     0
SMALL
GAST_HUCK


@<TRIPOS>ATOM
      1 C1         43.9030   -3.1690   25.8140 C.ar      1 CR9         0.0450
      2 C2         43.8390   -1.7620   25.6620 C.ar      1 CR9         0.1246
      3 F2         43.9350   -1.1800   24.4200 F         1 CR9        -0.1907
      4 C3         43.6490   -0.9390   26.7680 C.ar      1 CR9        -0.0071
      5 C4         43.5140   -1.5320   28.0060 C.ar      1 CR9         0.0786
      6 C5         43.5690   -2.8630   28.1860 C.ar      1 CR9         0.0262
      7 C6         43.7670   -3.7180   27.0950 C.ar      1 CR9        -0.0573
      8 C7         44.1070   -4.0070   24.7080 C.cat     1 CR9         0.2298
      9 N1         43.6870   -5.2550   24.7110 N.pl3     1 CR9        -0.2736
     10 N2         44.7420   -3.5080   23.6680 N.pl3     1 CR9        -0.2736
     11 N3         43.3370   -1.0430   29.1810 N.pl3     1 CR9        -0.2528
     12 N4         43.4280   -3.2250   29.4500 N.2       1 CR9        -0.3131
     13 C8         43.2890   -2.0360   30.0170 C.2       1 CR9         0.1320
     14 C1'        43.0420   -1.8400   31.3980 C.ar      1 CR9         0.0560
     15 C2'        42.8880   -2.9470   32.2420 C.ar      1 CR9        -0.0630
     16 C3'        42.6410   -2.7790   33.6070 C.ar      1 CR9        -0.0763
     17 C4'        42.5490   -1.5140   34.1420 C.ar      1 CR9        -0.0370
     18 C5'        42.6950   -0.3750   33.3480 C.ar      1 CR9         0.1263
     19 C6'        42.9470   -0.5400   31.9590 C.ar      1 CR9         0.1378
     20 O6'        43.0960    0.5590   31.1230 O.3       1 CR9        -0.3303
     21 O5'        42.5770    0.8770   33.9600 O.3       1 CR9        -0.3172
     22 C1''       42.4880    2.5050   35.8220 C.3       1 CR9        -0.0136
     23 C2''       43.1530    2.9440   37.1920 C.3       1 CR9        -0.0478
     24 C3''       44.6580    3.1240   37.0360 C.3       1 CR9        -0.0526
     25 C4''       45.2580    1.8440   36.3800 C.3       1 CR9        -0.0504
     26 C5''       44.6320    1.5950   34.9730 C.3       1 CR9        -0.0224
     27 C6''       43.1610    1.2360   35.2300 C.3       1 CR9         0.0813
     28 C1A        41.0500    2.1800   36.1360 C.3       1 CR9        -0.0597
     29 H1         43.6082    0.1388   26.6595 H         1 CR9         0.0524
     30 H2         43.8144   -4.7912   27.2402 H         1 CR9         0.0543
     31 H3         43.8468   -5.8541   23.8885 H         1 CR9         0.3179
     32 H4         43.1987   -5.6321   25.5358 H         1 CR9         0.3179
     33 H5         45.0639   -2.5297   23.6819 H         1 CR9         0.3179
     34 H6         44.9168   -4.0960   22.8406 H         1 CR9         0.3179
     35 H7         43.2491   -0.0443   29.4172 H         1 CR9         0.2290
     36 H8         42.9614   -3.9473   31.8309 H         1 CR9         0.0538
     37 H9         42.5216   -3.6465   34.2459 H         1 CR9         0.0510
     38 H10        42.3590   -1.3997   35.2031 H         1 CR9         0.0543
     39 H11        42.3024    1.0810   31.1435 H         1 CR9         0.2480
     40 H12        42.5501    3.3274   35.0942 H         1 CR9         0.0327
     41 H13        42.9600    2.1703   37.9497 H         1 CR9         0.0269
     42 H14        42.7089    3.8959   37.5186 H         1 CR9         0.0269
     43 H15        45.1149    3.2804   38.0243 H         1 CR9         0.0265
     44 H16        44.8606    3.9956   36.3962 H         1 CR9         0.0265
     45 H17        45.0506    0.9775   37.0251 H         1 CR9         0.0266
     46 H18        46.3456    1.9698   36.2733 H         1 CR9         0.0266
     47 H19        45.1462    0.7653   34.4658 H         1 CR9         0.0294
     48 H20        44.7030    2.5026   34.3556 H         1 CR9         0.0294
     49 H21        43.0770    0.3964   35.9357 H         1 CR9         0.0648
     50 H22        40.5568    3.0686   36.5569 H         1 CR9         0.0233
     51 H23        41.0108    1.3584   36.8664 H         1 CR9         0.0233
     52 H24        40.5330    1.8759   35.2139 H         1 CR9         0.0233
@<TRIPOS>BOND
     1    1    2 ar 
     2    7    1 ar 
     3    1    8 1  
     4    2    3 1  
     5    4    2 ar 
     6    5    4 ar 
     7    6    5 ar 
     8   11    5 1  
     9    6    7 ar 
    10   12    6 1  
    11    8    9 ar 
    12    8   10 ar 
    13   13   11 1  
    14   13   12 2  
    15   14   13 1  
    16   14   15 ar 
    17   19   14 ar 
    18   16   15 ar 
    19   17   16 ar 
    20   18   17 ar 
    21   18   19 ar 
    22   21   18 1  
    23   19   20 1  
    24   27   21 1  
    25   22   23 1  
    26   27   22 1  
    27   22   28 1  
    28   23   24 1  
    29   24   25 1  
    30   25   26 1  
    31   26   27 1  
    32    4   29 1  
    33    7   30 1  
    34    9   31 1  
    35    9   32 1  
    36   10   33 1  
    37   10   34 1  
    38   11   35 1  
    39   15   36 1  
    40   16   37 1  
    41   17   38 1  
    42   20   39 1  
    43   22   40 1  
    44   23   41 1  
    45   23   42 1  
    46   24   43 1  
    47   24   44 1  
    48   25   45 1  
    49   25   46 1  
    50   26   47 1  
    51   26   48 1  
    52   27   49 1  
    53   28   50 1  
    54   28   51 1  
    55   28   52 1  
@<TRIPOS>SUBSTRUCTURE
     1 CR9         1

