### 
### Created by X-TOOL on Mon Sep 10 21:12:50 2018
### 

@<TRIPOS>MOLECULE
1o2s_ligand
   32    34     1     0     0
SMALL
GAST_HUCK


@<TRIPOS>ATOM
      1 C1         44.4320   -3.1000   26.2090 C.ar      1 CR4         0.0108
      2 C2         44.8530   -1.7570   26.2780 C.ar      1 CR4        -0.0697
      3 C3         44.8200   -1.0550   27.4740 C.ar      1 CR4        -0.0400
      4 C4         44.3690   -1.7070   28.5790 C.ar      1 CR4         0.0805
      5 C5         43.9510   -2.9880   28.5690 C.ar      1 CR4         0.0294
      6 C6         43.9680   -3.7260   27.3860 C.ar      1 CR4        -0.0569
      7 C7         44.4890   -3.7890   24.9880 C.cat     1 CR4         0.2290
      8 N1         44.2160   -5.0750   24.9500 N.pl3     1 CR4        -0.2732
      9 N2         44.8110   -3.1340   23.8960 N.pl3     1 CR4        -0.2732
     10 N3         44.2410   -1.3060   29.7810 N.pl3     1 CR4        -0.2511
     11 N4         43.5570   -3.4060   29.7520 N.2       1 CR4        -0.3105
     12 C8         43.7710   -2.3000   30.4570 C.2       1 CR4         0.1364
     13 C1'        43.5750   -2.1580   31.8270 C.ar      1 CR4         0.0650
     14 C2'        43.3790   -3.3150   32.6020 C.ar      1 CR4        -0.0515
     15 C3'        43.1840   -3.2160   33.9690 C.ar      1 CR4        -0.0671
     16 C4'        43.1850   -1.9660   34.5710 C.ar      1 CR4        -0.0660
     17 C5'        43.3800   -0.7990   33.8160 C.ar      1 CR4        -0.0265
     18 C6'        43.5740   -0.8660   32.4370 C.ar      1 CR4         0.1093
     19 O6'        43.7320    0.3260   31.7190 O.3       1 CR4        -0.3265
     20 H1         45.2089   -1.2638   25.3807 H         1 CR4         0.0541
     21 H2         45.1428   -0.0215   27.5261 H         1 CR4         0.0544
     22 H3         43.6326   -4.7567   27.3706 H         1 CR4         0.0548
     23 H4         44.2569   -5.5839   24.0555 H         1 CR4         0.3180
     24 H5         43.9613   -5.5732   25.8148 H         1 CR4         0.3180
     25 H6         45.0220   -2.1269   23.9428 H         1 CR4         0.3180
     26 H7         44.8525   -3.6274   22.9928 H         1 CR4         0.3180
     27 H8         44.4686   -0.3692   30.1437 H         1 CR4         0.2296
     28 H9         43.3806   -4.2892   32.1266 H         1 CR4         0.0635
     29 H10        43.0316   -4.1087   34.5648 H         1 CR4         0.0539
     30 H11        43.0327   -1.8894   35.6415 H         1 CR4         0.0625
     31 H12        43.3798    0.1655   34.3108 H         1 CR4         0.0554
     32 H13        44.4917    0.7933   32.0464 H         1 CR4         0.2519
@<TRIPOS>BOND
     1    1    2 ar 
     2    1    6 ar 
     3    1    7 1  
     4    2    3 ar 
     5    3    4 ar 
     6    4    5 ar 
     7    4   10 1  
     8    5    6 ar 
     9    5   11 1  
    10    7    8 ar 
    11    7    9 ar 
    12   10   12 1  
    13   11   12 2  
    14   12   13 1  
    15   13   14 ar 
    16   13   18 ar 
    17   14   15 ar 
    18   15   16 ar 
    19   16   17 ar 
    20   17   18 ar 
    21   18   19 1  
    22    2   20 1  
    23    3   21 1  
    24    6   22 1  
    25    8   23 1  
    26    8   24 1  
    27    9   25 1  
    28    9   26 1  
    29   10   27 1  
    30   14   28 1  
    31   15   29 1  
    32   16   30 1  
    33   17   31 1  
    34   19   32 1  
@<TRIPOS>SUBSTRUCTURE
     1 CR4         1

