### 
### Created by X-TOOL on Mon Sep 10 21:12:49 2018
### 

@<TRIPOS>MOLECULE
1o2t_ligand
   47    50     1     0     0
SMALL
GAST_HUCK


@<TRIPOS>ATOM
      1 C1         44.2780   -3.1340   26.0590 C.ar      1 783         0.0081
      2 C2         44.6320   -1.7640   26.1090 C.ar      1 783        -0.0715
      3 C3         44.5840   -1.0180   27.2880 C.ar      1 783        -0.0437
      4 C4         44.1730   -1.6670   28.4050 C.ar      1 783         0.0625
      5 C5         43.8190   -2.9600   28.4280 C.ar      1 783        -0.0269
      6 C6         43.8590   -3.7220   27.2640 C.ar      1 783        -0.0699
      7 C7         44.3490   -3.8640   24.8650 C.cat     1 783         0.2284
      8 N1         43.9970   -5.1330   24.8270 N.pl3     1 783        -0.2733
      9 N2         44.7820   -3.2510   23.7920 N.pl3     1 783        -0.2733
     10 N3         44.0500   -1.2020   29.6330 N.pl3     1 783        -0.2764
     11 CN4        43.3960   -3.2290   29.6720 C.2       1 783        -0.0578
     12 C8         43.6260   -2.1350   30.4700 C.2       1 783         0.0581
     13 C1'        43.3930   -1.8930   31.8160 C.ar      1 783         0.0300
     14 C2'        43.0830   -2.9860   32.6260 C.ar      1 783        -0.0306
     15 C3'        42.8380   -2.8490   33.9750 C.ar      1 783         0.0805
     16 O3'        42.5180   -3.9370   34.7750 O.3       1 783        -0.3284
     17 CM3'       41.1470   -3.9560   35.1580 C.3       1 783         0.0569
     18 C4'        42.9000   -1.6070   34.5350 C.ar      1 783        -0.0327
     19 C5'        43.2020   -0.4760   33.8010 C.ar      1 783         0.0068
     20 C6'        43.4470   -0.6200   32.4130 C.ar      1 783         0.1015
     21 O6'        43.7190    0.4550   31.5840 O.3       1 783        -0.3332
     22 C1''       43.2590    0.7010   34.5330 C.ar      1 783        -0.0238
     23 C2''       44.4190    1.4820   34.5830 C.ar      1 783        -0.0571
     24 C3''       44.4820    2.6380   35.3460 C.ar      1 783        -0.0631
     25 C4''       43.3820    3.0290   36.0880 C.ar      1 783        -0.0634
     26 C5''       42.2150    2.2800   36.0650 C.ar      1 783        -0.0631
     27 C6''       42.1600    1.1250   35.2950 C.ar      1 783        -0.0571
     28 H1         44.9528   -1.2753   25.1961 H         1 783         0.0528
     29 H2         44.8619    0.0296   27.3093 H         1 783         0.0539
     30 H3         43.5678   -4.7659   27.2872 H         1 783         0.0531
     31 H4         44.0544   -5.6571   23.9422 H         1 783         0.3180
     32 H5         43.6644   -5.6010   25.6821 H         1 783         0.3180
     33 H6         45.0529   -2.2584   23.8399 H         1 783         0.3180
     34 H7         44.8517   -3.7614   22.9001 H         1 783         0.3180
     35 H8         44.2585   -0.2313   29.9070 H         1 783         0.2230
     36 H9         42.9430   -4.1644   29.9971 H         1 783         0.0295
     37 H10        43.0334   -3.9730   32.1805 H         1 783         0.0516
     38 H11        40.9545   -4.8370   35.7878 H         1 783         0.0573
     39 H12        40.5156   -4.0033   34.2585 H         1 783         0.0573
     40 H13        40.9116   -3.0424   35.7237 H         1 783         0.0573
     41 H14        42.7049   -1.5032   35.5962 H         1 783         0.0520
     42 H15        44.5040    0.8963   31.8867 H         1 783         0.2488
     43 H16        45.2883    1.1762   34.0121 H         1 783         0.0607
     44 H17        45.3885    3.2322   35.3610 H         1 783         0.0613
     45 H18        43.4325    3.9277   36.6921 H         1 783         0.0603
     46 H19        41.3531    2.5932   36.6430 H         1 783         0.0613
     47 H20        41.2483    0.5387   35.2827 H         1 783         0.0607
@<TRIPOS>BOND
     1    1    2 ar 
     2    1    6 ar 
     3    1    7 1  
     4    2    3 ar 
     5    2   28 1  
     6    3    4 ar 
     7    3   29 1  
     8    4    5 ar 
     9    4   10 1  
    10    5    6 ar 
    11    5   11 1  
    12    6   30 1  
    13    7    8 ar 
    14    7    9 ar 
    15    8   31 1  
    16    8   32 1  
    17    9   33 1  
    18    9   34 1  
    19   10   12 1  
    20   10   35 1  
    21   12   11 2  
    22   11   36 1  
    23   12   13 1  
    24   13   14 ar 
    25   13   20 ar 
    26   14   15 ar 
    27   14   37 1  
    28   15   16 1  
    29   15   18 ar 
    30   16   17 1  
    31   17   38 1  
    32   17   39 1  
    33   17   40 1  
    34   18   19 ar 
    35   18   41 1  
    36   19   20 ar 
    37   19   22 1  
    38   20   21 1  
    39   22   23 ar 
    40   22   27 ar 
    41   23   24 ar 
    42   21   42 1  
    43   24   25 ar 
    44   23   43 1  
    45   25   26 ar 
    46   24   44 1  
    47   27   26 ar 
    48   25   45 1  
    49   26   46 1  
    50   27   47 1  
@<TRIPOS>SUBSTRUCTURE
     1 783         1

