### 
### Created by X-TOOL on Mon Sep 10 21:12:50 2018
### 

@<TRIPOS>MOLECULE
1o2u_ligand
   42    44     1     0     0
SMALL
GAST_HUCK


@<TRIPOS>ATOM
      1 C1         44.1980   -3.1170   26.0000 C.ar      1 847         0.0108
      2 C2         44.5440   -1.7560   26.2980 C.ar      1 847        -0.0697
      3 C3         44.4350   -1.2030   27.5900 C.ar      1 847        -0.0400
      4 C4         43.9780   -2.0460   28.5660 C.ar      1 847         0.0805
      5 C5         43.6420   -3.3250   28.3290 C.ar      1 847         0.0295
      6 C6         43.7280   -3.9110   27.0820 C.ar      1 847        -0.0569
      7 C7         44.3220   -3.6520   24.6930 C.cat     1 847         0.2290
      8 N1         44.0060   -4.9080   24.4640 N.pl3     1 847        -0.2732
      9 N2         44.7540   -2.8890   23.7140 N.pl3     1 847        -0.2732
     10 N3         43.7760   -1.8470   29.8240 N.pl3     1 847        -0.2512
     11 N4         43.2270   -3.9550   29.4070 N.2       1 847        -0.3105
     12 C8         43.3390   -2.9820   30.2910 C.2       1 847         0.1355
     13 C1'        43.0340   -3.2050   31.6530 C.ar      1 847         0.0617
     14 C2'        42.4410   -4.4100   32.1240 C.ar      1 847        -0.0452
     15 C3'        42.1390   -4.6260   33.4900 C.ar      1 847        -0.0280
     16 C31'       41.4620   -5.9100   34.0240 C.3       1 847         0.0530
     17 C32'       39.9570   -5.5950   33.7240 C.2       1 847         0.0494
     18 O33'       39.4120   -6.2490   32.8500 O.co2     1 847        -0.5663
     19 O34'       39.4180   -4.7020   34.3700 O.co2     1 847        -0.5663
     20 C42'       41.6700   -6.2130   35.6230 C.3       1 847         0.0227
     21 C43'       43.0320   -6.8500   36.1510 C.2       1 847         0.0384
     22 O44'       43.2740   -8.0180   35.9280 O.co2     1 847        -0.5687
     23 O45'       43.8160   -6.1730   36.8010 O.co2     1 847        -0.5687
     24 C4'        42.4440   -3.6370   34.3760 C.ar      1 847        -0.0523
     25 C5'        43.0160   -2.4870   33.9490 C.ar      1 847         0.0415
     26 C6'        43.3190   -2.2260   32.6260 C.ar      1 847         0.1130
     27 O6'        43.8690   -0.9990   32.3010 O.3       1 847        -0.3283
     28 BR5'       43.4920   -1.3440   35.4140 Br        1 847        -0.0582
     29 H1         44.9052   -1.1255   25.4936 H         1 847         0.0541
     30 H2         44.6974   -0.1720   27.7978 H         1 847         0.0544
     31 H3         43.4454   -4.9467   26.9320 H         1 847         0.0548
     32 H4         44.0960   -5.2968   23.5145 H         1 847         0.3180
     33 H5         43.6685   -5.5028   25.2342 H         1 847         0.3180
     34 H6         45.0004   -1.9059   23.8976 H         1 847         0.3180
     35 H7         44.8462   -3.2741   22.7632 H         1 847         0.3180
     36 H8         43.9282   -0.9741   30.3492 H         1 847         0.2296
     37 H9         42.2119   -5.1923   31.4094 H         1 847         0.0597
     38 H10        41.8089   -6.7862   33.4567 H         1 847         0.0622
     39 H11        40.8637   -6.8988   35.9221 H         1 847         0.0471
     40 H12        41.5471   -5.2527   36.1452 H         1 847         0.0471
     41 H13        42.2272   -3.7719   35.4295 H         1 847         0.0598
     42 H14        44.6914   -0.8894   32.7636 H         1 847         0.2512
@<TRIPOS>BOND
     1    1    2 ar 
     2    1    6 ar 
     3    1    7 1  
     4    2    3 ar 
     5    3    4 ar 
     6    4    5 ar 
     7    4   10 1  
     8    5    6 ar 
     9    5   11 1  
    10    7    8 ar 
    11    7    9 ar 
    12   10   12 1  
    13   11   12 2  
    14   12   13 1  
    15   13   14 ar 
    16   13   26 ar 
    17   14   15 ar 
    18   15   16 1  
    19   15   24 ar 
    20   16   17 1  
    21   16   20 1  
    22   17   18 ar 
    23   17   19 ar 
    24   20   21 1  
    25   21   22 ar 
    26   21   23 ar 
    27   24   25 ar 
    28   25   26 ar 
    29   25   28 1  
    30   26   27 1  
    31    2   29 1  
    32    3   30 1  
    33    6   31 1  
    34    8   32 1  
    35    8   33 1  
    36    9   34 1  
    37    9   35 1  
    38   10   36 1  
    39   14   37 1  
    40   16   38 1  
    41   20   39 1  
    42   20   40 1  
    43   24   41 1  
    44   27   42 1  
@<TRIPOS>SUBSTRUCTURE
     1 847         1

