### 
### Created by X-TOOL on Mon Sep 10 21:12:50 2018
### 

@<TRIPOS>MOLECULE
1o2v_ligand
   42    44     1     0     0
SMALL
GAST_HUCK


@<TRIPOS>ATOM
      1 C1         44.0890   -2.9160   26.5630 C.ar      1 847         0.0108
      2 C2         44.4540   -1.5420   26.5400 C.ar      1 847        -0.0697
      3 C3         44.4070   -0.7280   27.6810 C.ar      1 847        -0.0400
      4 C4         43.9890   -1.3190   28.8370 C.ar      1 847         0.0805
      5 C5         43.6290   -2.6030   28.9240 C.ar      1 847         0.0295
      6 C6         43.6620   -3.4560   27.8120 C.ar      1 847        -0.0569
      7 C7         44.1610   -3.6760   25.3890 C.cat     1 847         0.2290
      8 N1         44.0410   -4.9790   25.4560 N.pl3     1 847        -0.2732
      9 N2         44.3470   -3.0680   24.2280 N.pl3     1 847        -0.2732
     10 N3         43.8540   -0.8140   30.0080 N.pl3     1 847        -0.2512
     11 N4         43.2670   -2.9360   30.1540 N.2       1 847        -0.3105
     12 C8         43.4290   -1.7700   30.7650 C.2       1 847         0.1355
     13 C1'        43.1630   -1.5650   32.1360 C.ar      1 847         0.0617
     14 C2'        42.7830   -2.6280   32.9540 C.ar      1 847        -0.0452
     15 C3'        42.4920   -2.5030   34.3220 C.ar      1 847        -0.0280
     16 C31'       42.0100   -3.8340   35.0120 C.3       1 847         0.0530
     17 C32'       40.5720   -4.1410   34.4250 C.2       1 847         0.0494
     18 O33'       40.4140   -5.1680   33.7870 O.co2     1 847        -0.5663
     19 O34'       39.6640   -3.3510   34.6050 O.co2     1 847        -0.5663
     20 C42'       42.0610   -3.8530   36.6210 C.3       1 847         0.0227
     21 C43'       43.0160   -4.9420   37.2840 C.2       1 847         0.0384
     22 O44'       43.3430   -5.9550   36.6890 O.co2     1 847        -0.5687
     23 O45'       43.4300   -4.7540   38.4170 O.co2     1 847        -0.5687
     24 C4'        42.5960   -1.2290   34.9070 C.ar      1 847        -0.0523
     25 C5'        42.9770   -0.0830   34.1370 C.ar      1 847         0.0415
     26 C6'        43.2520   -0.2960   32.7520 C.ar      1 847         0.1130
     27 O6'        43.6030    0.8010   32.0050 O.3       1 847        -0.3283
     28 BR5'       43.0840    1.7460   34.9270 Br        1 847        -0.0582
     29 H1         44.7817   -1.1063   25.6031 H         1 847         0.0541
     30 H2         44.6887    0.3182   27.6460 H         1 847         0.0544
     31 H3         43.3712   -4.4966   27.8990 H         1 847         0.0548
     32 H4         44.0927   -5.5458   24.5975 H         1 847         0.3180
     33 H5         43.8950   -5.4366   26.3672 H         1 847         0.3180
     34 H6         44.4394   -2.0428   24.1925 H         1 847         0.3180
     35 H7         44.3993   -3.6201   23.3601 H         1 847         0.3180
     36 H8         44.0459    0.1584   30.2883 H         1 847         0.2296
     37 H9         42.7075   -3.6123   32.5061 H         1 847         0.0597
     38 H10        42.6859   -4.6360   34.6805 H         1 847         0.0622
     39 H11        41.0398   -4.0358   36.9866 H         1 847         0.0471
     40 H12        42.3989   -2.8617   36.9574 H         1 847         0.0471
     41 H13        42.3833   -1.1114   35.9634 H         1 847         0.0598
     42 H14        43.7598    0.5341   31.1069 H         1 847         0.2512
@<TRIPOS>BOND
     1    1    2 ar 
     2    1    6 ar 
     3    1    7 1  
     4    2    3 ar 
     5    3    4 ar 
     6    4    5 ar 
     7    4   10 1  
     8    5    6 ar 
     9    5   11 1  
    10    7    8 ar 
    11    7    9 ar 
    12   10   12 1  
    13   11   12 2  
    14   12   13 1  
    15   13   14 ar 
    16   13   26 ar 
    17   14   15 ar 
    18   15   16 1  
    19   15   24 ar 
    20   16   17 1  
    21   16   20 1  
    22   17   18 ar 
    23   17   19 ar 
    24   20   21 1  
    25   21   22 ar 
    26   21   23 ar 
    27   24   25 ar 
    28   25   26 ar 
    29   25   28 1  
    30   26   27 1  
    31    2   29 1  
    32    3   30 1  
    33    6   31 1  
    34    8   32 1  
    35    8   33 1  
    36    9   34 1  
    37    9   35 1  
    38   10   36 1  
    39   14   37 1  
    40   16   38 1  
    41   20   39 1  
    42   20   40 1  
    43   24   41 1  
    44   27   42 1  
@<TRIPOS>SUBSTRUCTURE
     1 847         1

