### 
### Created by X-TOOL on Mon Sep 10 21:12:50 2018
### 

@<TRIPOS>MOLECULE
1o2w_ligand
   42    44     1     0     0
SMALL
GAST_HUCK


@<TRIPOS>ATOM
      1 C1         44.0710   -2.9590   26.4710 C.ar      1 847         0.0108
      2 C2         44.4520   -1.5810   26.4460 C.ar      1 847        -0.0697
      3 C3         44.3730   -0.7600   27.5730 C.ar      1 847        -0.0400
      4 C4         43.9140   -1.3460   28.7220 C.ar      1 847         0.0805
      5 C5         43.5430   -2.6330   28.7990 C.ar      1 847         0.0295
      6 C6         43.5980   -3.4890   27.7060 C.ar      1 847        -0.0569
      7 C7         44.1750   -3.7460   25.3230 C.cat     1 847         0.2290
      8 N1         43.9530   -5.0330   25.4110 N.pl3     1 847        -0.2732
      9 N2         44.4890   -3.1740   24.1790 N.pl3     1 847        -0.2732
     10 N3         43.7440   -0.8520   29.8950 N.pl3     1 847        -0.2512
     11 N4         43.1360   -2.9770   30.0040 N.2       1 847        -0.3105
     12 C8         43.2930   -1.8190   30.6260 C.2       1 847         0.1355
     13 C1'        43.0220   -1.6460   32.0050 C.ar      1 847         0.0617
     14 C2'        42.5790   -2.7150   32.8110 C.ar      1 847        -0.0452
     15 C3'        42.3030   -2.5710   34.1780 C.ar      1 847        -0.0280
     16 C31'       41.7700   -3.8380   34.9550 C.3       1 847         0.0530
     17 C32'       40.2780   -4.0050   34.4620 C.2       1 847         0.0494
     18 O33'       40.0010   -4.9840   33.7930 O.co2     1 847        -0.5663
     19 O34'       39.4440   -3.1620   34.7340 O.co2     1 847        -0.5663
     20 C42'       41.9590   -3.7570   36.5780 C.3       1 847         0.0227
     21 C43'       42.9600   -4.8000   37.2550 C.2       1 847         0.0384
     22 O44'       43.1590   -5.9060   36.7880 O.co2     1 847        -0.5687
     23 O45'       43.5510   -4.4730   38.2740 O.co2     1 847        -0.5687
     24 C4'        42.4850   -1.3000   34.7560 C.ar      1 847        -0.0523
     25 C5'        42.9240   -0.2000   34.0050 C.ar      1 847         0.0415
     26 C6'        43.1830   -0.3900   32.6390 C.ar      1 847         0.1130
     27 O6'        43.5940    0.6950   31.9010 O.3       1 847        -0.3283
     28 BR5'       43.1810    1.5710   34.8510 Br        1 847        -0.0582
     29 H1         44.8160   -1.1575   25.5169 H         1 847         0.0541
     30 H2         44.6597    0.2849   27.5398 H         1 847         0.0544
     31 H3         43.2913   -4.5253   27.7901 H         1 847         0.0548
     32 H4         44.0260   -5.6267   24.5725 H         1 847         0.3180
     33 H5         43.7053   -5.4520   26.3188 H         1 847         0.3180
     34 H6         44.6582   -2.1587   24.1402 H         1 847         0.3180
     35 H7         44.5654   -3.7419   23.3231 H         1 847         0.3180
     36 H8         43.9290    0.1165   30.1929 H         1 847         0.2296
     37 H9         42.4463   -3.6891   32.3544 H         1 847         0.0597
     38 H10        42.3423   -4.7159   34.6207 H         1 847         0.0622
     39 H11        40.9689   -3.9071   37.0332 H         1 847         0.0471
     40 H12        42.3234   -2.7472   36.8176 H         1 847         0.0471
     41 H13        42.2798   -1.1679   35.8122 H         1 847         0.0598
     42 H14        44.4056    1.0326   32.2614 H         1 847         0.2512
@<TRIPOS>BOND
     1    1    2 ar 
     2    1    6 ar 
     3    1    7 1  
     4    2    3 ar 
     5    3    4 ar 
     6    4    5 ar 
     7    4   10 1  
     8    5    6 ar 
     9    5   11 1  
    10    7    8 ar 
    11    7    9 ar 
    12   10   12 1  
    13   11   12 2  
    14   12   13 1  
    15   13   14 ar 
    16   13   26 ar 
    17   14   15 ar 
    18   15   16 1  
    19   15   24 ar 
    20   16   17 1  
    21   16   20 1  
    22   17   18 ar 
    23   17   19 ar 
    24   20   21 1  
    25   21   22 ar 
    26   21   23 ar 
    27   24   25 ar 
    28   25   26 ar 
    29   25   28 1  
    30   26   27 1  
    31    2   29 1  
    32    3   30 1  
    33    6   31 1  
    34    8   32 1  
    35    8   33 1  
    36    9   34 1  
    37    9   35 1  
    38   10   36 1  
    39   14   37 1  
    40   16   38 1  
    41   20   39 1  
    42   20   40 1  
    43   24   41 1  
    44   27   42 1  
@<TRIPOS>SUBSTRUCTURE
     1 847         1

