### 
### Created by X-TOOL on Mon Sep 10 21:12:50 2018
### 

@<TRIPOS>MOLECULE
1o2x_ligand
   42    44     1     0     0
SMALL
GAST_HUCK


@<TRIPOS>ATOM
      1 C1         44.0400   -2.8750   26.4080 C.ar      1 847         0.0108
      2 C2         44.4300   -1.5110   26.4210 C.ar      1 847        -0.0697
      3 C3         44.3550   -0.7170   27.5690 C.ar      1 847        -0.0400
      4 C4         43.8830   -1.3300   28.7040 C.ar      1 847         0.0805
      5 C5         43.5010   -2.6140   28.7330 C.ar      1 847         0.0295
      6 C6         43.5540   -3.4370   27.6240 C.ar      1 847        -0.0569
      7 C7         44.1340   -3.6390   25.2300 C.cat     1 847         0.2290
      8 N1         43.9450   -4.9280   25.2930 N.pl3     1 847        -0.2732
      9 N2         44.4180   -3.0420   24.0720 N.pl3     1 847        -0.2732
     10 N3         43.6990   -0.8630   29.8910 N.pl3     1 847        -0.2512
     11 N4         43.0700   -2.9850   29.9250 N.2       1 847        -0.3105
     12 C8         43.2310   -1.8450   30.5920 C.2       1 847         0.1355
     13 C1'        42.9770   -1.7160   31.9740 C.ar      1 847         0.0617
     14 C2'        42.5690   -2.8100   32.7540 C.ar      1 847        -0.0452
     15 C3'        42.3060   -2.7170   34.1290 C.ar      1 847        -0.0280
     16 C31'       41.8100   -4.0150   34.8700 C.3       1 847         0.0530
     17 C32'       40.3640   -4.2390   34.3380 C.2       1 847         0.0494
     18 O33'       40.1270   -5.2870   33.7780 O.co2     1 847        -0.5663
     19 O34'       39.5330   -3.3670   34.4860 O.co2     1 847        -0.5663
     20 C42'       41.9390   -3.9820   36.5100 C.3       1 847         0.0227
     21 C43'       42.9200   -5.0460   37.1680 C.2       1 847         0.0384
     22 O44'       43.2700   -6.0440   36.5670 O.co2     1 847        -0.5687
     23 O45'       43.3390   -4.8510   38.2960 O.co2     1 847        -0.5687
     24 C4'        42.4690   -1.4700   34.7460 C.ar      1 847        -0.0523
     25 C5'        42.8800   -0.3800   33.9980 C.ar      1 847         0.0415
     26 C6'        43.1300   -0.4920   32.6390 C.ar      1 847         0.1130
     27 O6'        43.5170    0.6360   31.9590 O.3       1 847        -0.3283
     28 BR5'       43.0590    1.3260   34.8980 Br        1 847        -0.0582
     29 H1         44.8009   -1.0669   25.5043 H         1 847         0.0541
     30 H2         44.6530    0.3252   27.5638 H         1 847         0.0544
     31 H3         43.2374   -4.4724   27.6772 H         1 847         0.0548
     32 H4         44.0105   -5.5004   24.4392 H         1 847         0.3180
     33 H5         43.7302   -5.3735   26.1965 H         1 847         0.3180
     34 H6         44.5643   -2.0229   24.0402 H         1 847         0.3180
     35 H7         44.4911   -3.5999   23.2093 H         1 847         0.3180
     36 H8         43.8863    0.0964   30.2156 H         1 847         0.2296
     37 H9         42.4515   -3.7730   32.2704 H         1 847         0.0597
     38 H10        42.4327   -4.8569   34.5333 H         1 847         0.0622
     39 H11        40.9353   -4.1507   36.9273 H         1 847         0.0471
     40 H12        42.2919   -2.9805   36.7970 H         1 847         0.0471
     41 H13        42.2738   -1.3588   35.8065 H         1 847         0.0598
     42 H14        43.6545    0.4212   31.0439 H         1 847         0.2512
@<TRIPOS>BOND
     1    1    2 ar 
     2    1    6 ar 
     3    1    7 1  
     4    2    3 ar 
     5    3    4 ar 
     6    4    5 ar 
     7    4   10 1  
     8    5    6 ar 
     9    5   11 1  
    10    7    8 ar 
    11    7    9 ar 
    12   10   12 1  
    13   11   12 2  
    14   12   13 1  
    15   13   14 ar 
    16   13   26 ar 
    17   14   15 ar 
    18   15   16 1  
    19   15   24 ar 
    20   16   17 1  
    21   16   20 1  
    22   17   18 ar 
    23   17   19 ar 
    24   20   21 1  
    25   21   22 ar 
    26   21   23 ar 
    27   24   25 ar 
    28   25   26 ar 
    29   25   28 1  
    30   26   27 1  
    31    2   29 1  
    32    3   30 1  
    33    6   31 1  
    34    8   32 1  
    35    8   33 1  
    36    9   34 1  
    37    9   35 1  
    38   10   36 1  
    39   14   37 1  
    40   16   38 1  
    41   20   39 1  
    42   20   40 1  
    43   24   41 1  
    44   27   42 1  
@<TRIPOS>SUBSTRUCTURE
     1 847         1

