### 
### Created by X-TOOL on Mon Sep 10 21:12:50 2018
### 

@<TRIPOS>MOLECULE
1o2y_ligand
   42    44     1     0     0
SMALL
GAST_HUCK


@<TRIPOS>ATOM
      1 C1         44.2040   -2.9070   26.2020 C.ar      1 847         0.0108
      2 C2         44.7670   -1.5910   26.2920 C.ar      1 847        -0.0697
      3 C3         44.7580   -0.8460   27.4750 C.ar      1 847        -0.0400
      4 C4         44.1860   -1.4390   28.5700 C.ar      1 847         0.0805
      5 C5         43.6440   -2.6580   28.5510 C.ar      1 847         0.0295
      6 C6         43.6260   -3.4410   27.3980 C.ar      1 847        -0.0569
      7 C7         44.2290   -3.6140   24.9810 C.cat     1 847         0.2290
      8 N1         43.7850   -4.8480   24.9260 N.pl3     1 847        -0.2732
      9 N2         44.7170   -3.0400   23.9000 N.pl3     1 847        -0.2732
     10 N3         44.0500   -0.9990   29.7740 N.pl3     1 847        -0.2512
     11 N4         43.1440   -3.0230   29.7270 N.2       1 847        -0.3105
     12 C8         43.4400   -1.9360   30.4440 C.2       1 847         0.1355
     13 C1'        43.1280   -1.7920   31.8210 C.ar      1 847         0.0617
     14 C2'        42.5550   -2.8280   32.5990 C.ar      1 847        -0.0452
     15 C3'        42.2570   -2.6820   33.9820 C.ar      1 847        -0.0280
     16 C31'       41.5920   -3.8650   34.7840 C.3       1 847         0.0530
     17 C32'       40.0900   -3.8620   34.2780 C.2       1 847         0.0494
     18 O33'       39.7600   -4.7550   33.5160 O.co2     1 847        -0.5663
     19 O34'       39.3240   -2.9870   34.6320 O.co2     1 847        -0.5663
     20 C42'       41.7900   -3.7710   36.4410 C.3       1 847         0.0227
     21 C43'       42.7860   -4.8030   37.1620 C.2       1 847         0.0384
     22 O44'       43.0870   -5.8650   36.6520 O.co2     1 847        -0.5687
     23 O45'       43.2600   -4.5190   38.2540 O.co2     1 847        -0.5687
     24 C4'        42.5530   -1.4510   34.5870 C.ar      1 847        -0.0523
     25 C5'        43.1240   -0.3930   33.8710 C.ar      1 847         0.0415
     26 C6'        43.3970   -0.5700   32.5100 C.ar      1 847         0.1130
     27 O6'        43.9460    0.5010   31.8500 O.3       1 847        -0.3283
     28 BR5'       43.5940    1.3110   34.7460 Br        1 847        -0.0582
     29 H1         45.2177   -1.1564   25.4071 H         1 847         0.0541
     30 H2         45.1821    0.1504   27.5236 H         1 847         0.0544
     31 H3         43.1847   -4.4311   27.4067 H         1 847         0.0548
     32 H4         43.8039   -5.3628   24.0341 H         1 847         0.3180
     33 H5         43.4177   -5.3015   25.7747 H         1 847         0.3180
     34 H6         45.0653   -2.0717   23.9437 H         1 847         0.3180
     35 H7         44.7502   -3.5596   23.0113 H         1 847         0.3180
     36 H8         44.3620   -0.0864   30.1355 H         1 847         0.2296
     37 H9         42.3338   -3.7743   32.1188 H         1 847         0.0597
     38 H10        42.0616   -4.8088   34.4699 H         1 847         0.0622
     39 H11        40.7971   -3.9108   36.8934 H         1 847         0.0471
     40 H12        42.1561   -2.7583   36.6657 H         1 847         0.0471
     41 H13        42.3329   -1.3157   35.6398 H         1 847         0.0598
     42 H14        44.7752    0.7292   32.2537 H         1 847         0.2512
@<TRIPOS>BOND
     1    1    2 ar 
     2    1    6 ar 
     3    1    7 1  
     4    2    3 ar 
     5    3    4 ar 
     6    4    5 ar 
     7    4   10 1  
     8    5    6 ar 
     9    5   11 1  
    10    7    8 ar 
    11    7    9 ar 
    12   10   12 1  
    13   11   12 2  
    14   12   13 1  
    15   13   14 ar 
    16   13   26 ar 
    17   14   15 ar 
    18   15   16 1  
    19   15   24 ar 
    20   16   17 1  
    21   16   20 1  
    22   17   18 ar 
    23   17   19 ar 
    24   20   21 1  
    25   21   22 ar 
    26   21   23 ar 
    27   24   25 ar 
    28   25   26 ar 
    29   25   28 1  
    30   26   27 1  
    31    2   29 1  
    32    3   30 1  
    33    6   31 1  
    34    8   32 1  
    35    8   33 1  
    36    9   34 1  
    37    9   35 1  
    38   10   36 1  
    39   14   37 1  
    40   16   38 1  
    41   20   39 1  
    42   20   40 1  
    43   24   41 1  
    44   27   42 1  
@<TRIPOS>SUBSTRUCTURE
     1 847         1

