### 
### Created by X-TOOL on Mon Sep 10 21:12:50 2018
### 

@<TRIPOS>MOLECULE
1o2z_ligand
   56    59     1     0     0
SMALL
GAST_HUCK


@<TRIPOS>ATOM
      1 C1         44.2790   -3.0530   25.9510 C.ar      1 312         0.0108
      2 C2         44.5940   -1.6590   25.9970 C.ar      1 312        -0.0697
      3 C3         44.5240   -0.9070   27.1850 C.ar      1 312        -0.0401
      4 C4         44.1120   -1.5700   28.3210 C.ar      1 312         0.0805
      5 C5         43.7890   -2.8720   28.3250 C.ar      1 312         0.0294
      6 C6         43.8590   -3.6650   27.1730 C.ar      1 312        -0.0569
      7 C7         44.3530   -3.7730   24.7400 C.cat     1 312         0.2290
      8 N1         43.9120   -5.0160   24.6900 N.pl3     1 312        -0.2732
      9 N2         44.8650   -3.2000   23.6670 N.pl3     1 312        -0.2732
     10 N3         43.9270   -1.1470   29.5270 N.pl3     1 312        -0.2513
     11 N4         43.4130   -3.2960   29.5200 N.2       1 312        -0.3107
     12 C8         43.5260   -2.1690   30.2190 C.2       1 312         0.1345
     13 C1'        43.2490   -2.0920   31.6190 C.ar      1 312         0.0592
     14 C2'        42.8920   -3.2290   32.3650 C.ar      1 312        -0.0492
     15 C3'        42.6230   -3.1660   33.7340 C.ar      1 312        -0.0319
     16 C31'       42.2290   -4.4390   34.5270 C.3       1 312         0.0521
     17 C32'       40.7860   -4.7230   34.0640 C.2       1 312         0.0494
     18 O33'       40.6870   -5.4970   33.1190 O.co2     1 312        -0.5663
     19 O34'       39.8600   -4.1650   34.6370 O.co2     1 312        -0.5663
     20 C42'       42.3800   -4.2920   36.1480 C.3       1 312         0.0227
     21 C43'       43.2280   -5.4210   36.8500 C.2       1 312         0.0384
     22 O44'       43.0690   -6.5880   36.5120 O.co2     1 312        -0.5687
     23 O45'       44.0240   -5.0800   37.7240 O.co2     1 312        -0.5687
     24 C4'        42.7200   -1.9600   34.3720 C.ar      1 312        -0.0561
     25 C5'        43.0730   -0.8160   33.7240 C.ar      1 312         0.0102
     26 C6'        43.3290   -0.8750   32.3480 C.ar      1 312         0.1110
     27 O6'        43.6260    0.2980   31.6680 O.3       1 312        -0.3286
     28 C1''       43.2480    0.3090   34.5250 C.ar      1 312         0.0090
     29 C2''       42.2110    0.9560   35.2490 C.ar      1 312         0.0984
     30 C3''       42.5030    2.0760   36.0450 C.ar      1 312        -0.0331
     31 C4''       43.7880    2.5620   36.1310 C.ar      1 312        -0.0717
     32 C5''       44.8120    1.9560   35.4430 C.ar      1 312        -0.0737
     33 C6''       44.5460    0.8330   34.6440 C.ar      1 312        -0.0645
     34 O2''       40.9080    0.4890   35.1840 O.3       1 312        -0.3198
     35 CME        39.7830    1.3260   35.4890 C.3       1 312         0.0599
     36 H1         44.8982   -1.1626   25.0826 H         1 312         0.0541
     37 H2         44.7824    0.1456   27.2054 H         1 312         0.0544
     38 H3         43.6010   -4.7173   27.2069 H         1 312         0.0548
     39 H4         43.9639   -5.5458   23.8082 H         1 312         0.3180
     40 H5         43.5160   -5.4562   25.5328 H         1 312         0.3180
     41 H6         45.2068   -2.2295   23.7149 H         1 312         0.3180
     42 H7         44.9228   -3.7233   22.7817 H         1 312         0.3180
     43 H8         44.0697   -0.1870   29.8719 H         1 312         0.2296
     44 H9         42.8233   -4.1862   31.8609 H         1 312         0.0563
     45 H10        42.8781   -5.2707   34.2159 H         1 312         0.0622
     46 H11        41.3710   -4.3028   36.5859 H         1 312         0.0471
     47 H12        42.8607   -3.3253   36.3584 H         1 312         0.0471
     48 H13        42.5077   -1.9134   35.4340 H         1 312         0.0556
     49 H14        44.4078    0.6890   32.0399 H         1 312         0.2510
     50 H15        41.7076    2.5629   36.5976 H         1 312         0.0537
     51 H16        43.9941    3.4301   36.7466 H         1 312         0.0579
     52 H17        45.8215    2.3440   35.5172 H         1 312         0.0522
     53 H18        45.3600    0.3597   34.1070 H         1 312         0.0578
     54 H19        38.8540    0.7488   35.3715 H         1 312         0.0579
     55 H20        39.7693    2.1861   34.8035 H         1 312         0.0579
     56 H21        39.8632    1.6846   36.5258 H         1 312         0.0579
@<TRIPOS>BOND
     1    1    2 ar 
     2    1    6 ar 
     3    1    7 1  
     4    2    3 ar 
     5    3    4 ar 
     6    4    5 ar 
     7    4   10 1  
     8    5    6 ar 
     9    5   11 1  
    10    7    8 ar 
    11    7    9 ar 
    12   10   12 1  
    13   11   12 2  
    14   12   13 1  
    15   13   14 ar 
    16   13   26 ar 
    17   14   15 ar 
    18   15   16 1  
    19   15   24 ar 
    20   16   17 1  
    21   16   20 1  
    22   17   18 ar 
    23   17   19 ar 
    24   20   21 1  
    25   21   22 ar 
    26   21   23 ar 
    27   24   25 ar 
    28   25   26 ar 
    29   25   28 1  
    30   26   27 1  
    31   28   29 ar 
    32   28   33 ar 
    33   29   30 ar 
    34   29   34 1  
    35   30   31 ar 
    36   31   32 ar 
    37   32   33 ar 
    38   34   35 1  
    39    2   36 1  
    40    3   37 1  
    41    6   38 1  
    42    8   39 1  
    43    8   40 1  
    44    9   41 1  
    45    9   42 1  
    46   10   43 1  
    47   14   44 1  
    48   16   45 1  
    49   20   46 1  
    50   20   47 1  
    51   24   48 1  
    52   27   49 1  
    53   30   50 1  
    54   31   51 1  
    55   32   52 1  
    56   33   53 1  
    57   35   54 1  
    58   35   55 1  
    59   35   56 1  
@<TRIPOS>SUBSTRUCTURE
     1 312         1

