### 
### Created by X-TOOL on Mon Sep 10 21:12:50 2018
### 

@<TRIPOS>MOLECULE
1o30_ligand
   52    55     1     0     0
SMALL
GAST_HUCK


@<TRIPOS>ATOM
      1 C1         43.9790   -3.1320   26.0090 C.ar      1 693         0.0108
      2 C2         44.1660   -1.7150   25.9880 C.ar      1 693        -0.0697
      3 C3         44.0260   -0.9210   27.1250 C.ar      1 693        -0.0401
      4 C4         43.6960   -1.5690   28.2900 C.ar      1 693         0.0805
      5 C5         43.5080   -2.8930   28.3690 C.ar      1 693         0.0294
      6 C6         43.6370   -3.7220   27.2600 C.ar      1 693        -0.0569
      7 C7         44.1430   -3.8810   24.8290 C.cat     1 693         0.2290
      8 N1         43.8290   -5.1620   24.8090 N.pl3     1 693        -0.2732
      9 N2         44.6190   -3.2720   23.7540 N.pl3     1 693        -0.2732
     10 N3         43.5080   -1.0990   29.4710 N.pl3     1 693        -0.2512
     11 N4         43.1930   -3.2870   29.5910 N.2       1 693        -0.3106
     12 C8         43.2150   -2.1200   30.2090 C.2       1 693         0.1348
     13 C1'        42.9990   -1.9840   31.6010 C.ar      1 693         0.0604
     14 C2'        42.6790   -3.0930   32.3960 C.ar      1 693        -0.0481
     15 C3'        42.4550   -3.0140   33.7780 C.ar      1 693        -0.0307
     16 C31'       42.0810   -4.3060   34.5590 C.3       1 693         0.0523
     17 C32'       40.5760   -4.4840   34.2510 C.2       1 693         0.0494
     18 O33'       40.2540   -5.3170   33.4190 O.co2     1 693        -0.5663
     19 O34'       39.7880   -3.7720   34.8420 O.co2     1 693        -0.5663
     20 C42'       42.3820   -4.2100   36.1260 C.3       1 693         0.0227
     21 C43'       43.1110   -5.4400   36.7760 C.2       1 693         0.0384
     22 O44'       42.9800   -6.5550   36.2930 O.co2     1 693        -0.5687
     23 O45'       43.7970   -5.2220   37.7740 O.co2     1 693        -0.5687
     24 C4'        42.5660   -1.7720   34.3740 C.ar      1 693        -0.0543
     25 C5'        42.8880   -0.6190   33.6550 C.ar      1 693         0.0138
     26 C6'        43.0930   -0.7290   32.2710 C.ar      1 693         0.1129
     27 O6'        43.3600    0.4410   31.5780 O.3       1 693        -0.3278
     28 C1''       43.0410    0.5860   34.3410 C.ar      1 693         0.0125
     29 C2''       44.2770    1.2600   34.3350 C.ar      1 693         0.1383
     30 C3''       44.4490    2.4280   35.0450 C.ar      1 693        -0.0290
     31 C4''       43.3990    2.9670   35.7810 C.ar      1 693        -0.0651
     32 C5''       42.1740    2.3320   35.7960 C.ar      1 693        -0.0670
     33 C6''       41.9990    1.1560   35.0860 C.ar      1 693        -0.0583
     34 F2''       45.3690    0.7730   33.5920 F         1 693        -0.1831
     35 H1         44.4272   -1.2387   25.0499 H         1 693         0.0541
     36 H2         44.1702    0.1528   27.0914 H         1 693         0.0544
     37 H3         43.4811   -4.7913   27.3452 H         1 693         0.0548
     38 H4         43.9498   -5.7084   23.9443 H         1 693         0.3180
     39 H5         43.4630   -5.6159   25.6581 H         1 693         0.3180
     40 H6         44.8575   -2.2707   23.7925 H         1 693         0.3180
     41 H7         44.7508   -3.7995   22.8792 H         1 693         0.3180
     42 H8         43.5763   -0.1151   29.7679 H         1 693         0.2296
     43 H9         42.6006   -4.0625   31.9175 H         1 693         0.0572
     44 H10        42.6479   -5.1591   34.1579 H         1 693         0.0622
     45 H11        41.4203   -4.0797   36.6437 H         1 693         0.0471
     46 H12        43.0109   -3.3229   36.2918 H         1 693         0.0471
     47 H13        42.3965   -1.6897   35.4415 H         1 693         0.0567
     48 H14        43.4796    0.2419   30.6568 H         1 693         0.2514
     49 H15        45.4094    2.9305   35.0300 H         1 693         0.0599
     50 H16        43.5427    3.8837   36.3415 H         1 693         0.0594
     51 H17        41.3508    2.7526   36.3621 H         1 693         0.0579
     52 H18        41.0331    0.6643   35.1067 H         1 693         0.0596
@<TRIPOS>BOND
     1    1    2 ar 
     2    1    6 ar 
     3    1    7 1  
     4    2    3 ar 
     5    3    4 ar 
     6    4    5 ar 
     7    4   10 1  
     8    5    6 ar 
     9    5   11 1  
    10    7    8 ar 
    11    7    9 ar 
    12   10   12 1  
    13   11   12 2  
    14   12   13 1  
    15   13   14 ar 
    16   13   26 ar 
    17   14   15 ar 
    18   15   16 1  
    19   15   24 ar 
    20   16   17 1  
    21   16   20 1  
    22   17   18 ar 
    23   17   19 ar 
    24   20   21 1  
    25   21   22 ar 
    26   21   23 ar 
    27   24   25 ar 
    28   25   26 ar 
    29   25   28 1  
    30   26   27 1  
    31   28   29 ar 
    32   28   33 ar 
    33   29   30 ar 
    34   29   34 1  
    35   30   31 ar 
    36   31   32 ar 
    37   32   33 ar 
    38    2   35 1  
    39    3   36 1  
    40    6   37 1  
    41    8   38 1  
    42    8   39 1  
    43    9   40 1  
    44    9   41 1  
    45   10   42 1  
    46   14   43 1  
    47   16   44 1  
    48   20   45 1  
    49   20   46 1  
    50   24   47 1  
    51   27   48 1  
    52   30   49 1  
    53   31   50 1  
    54   32   51 1  
    55   33   52 1  
@<TRIPOS>SUBSTRUCTURE
     1 693         1

