### 
### Created by X-TOOL on Mon Sep 10 21:12:50 2018
### 

@<TRIPOS>MOLECULE
1o32_ligand
   31    33     1     0     0
SMALL
GAST_HUCK


@<TRIPOS>ATOM
      1 C1         44.2810   -3.1230   26.0620 C.ar      1 801         0.0117
      2 C2         44.6630   -1.7910   26.3490 C.ar      1 801        -0.0689
      3 C3         44.5530   -1.2790   27.6620 C.ar      1 801        -0.0391
      4 C4         44.0710   -2.1180   28.6360 C.ar      1 801         0.0823
      5 C5         43.6930   -3.3850   28.3730 C.ar      1 801         0.0333
      6 C6         43.7820   -3.9160   27.1040 C.ar      1 801        -0.0555
      7 C7         44.3910   -3.6670   24.7720 C.cat     1 801         0.2292
      8 N1         44.1110   -4.9340   24.5680 N.pl3     1 801        -0.2732
      9 N2         44.7790   -2.9010   23.7850 N.pl3     1 801        -0.2732
     10 N3         43.8660   -1.9530   29.8870 N.pl3     1 801        -0.2489
     11 N4         43.2570   -4.0300   29.4240 N.2       1 801        -0.3040
     12 C8         43.3970   -3.0840   30.3400 C.2       1 801         0.1548
     13 C1'        43.1300   -3.2320   31.7120 C.ar      1 801         0.1348
     14 N2'        43.1280   -2.1250   32.4520 N.ar      1 801        -0.2910
     15 C3'        42.8990   -2.1360   33.7530 C.ar      1 801         0.0036
     16 C4'        42.6430   -3.3320   34.4180 C.ar      1 801        -0.0391
     17 C5'        42.6360   -4.5160   33.6920 C.ar      1 801        -0.0077
     18 C6'        42.8780   -4.4920   32.3220 C.ar      1 801         0.1359
     19 O6'        42.8550   -5.7200   31.6610 O.3       1 801        -0.3190
     20 H1         45.0431   -1.1580   25.5554 H         1 801         0.0547
     21 H2         44.8393   -0.2591   27.8919 H         1 801         0.0547
     22 H3         43.4692   -4.9364   26.9141 H         1 801         0.0554
     23 H4         44.1916   -5.3334   23.6220 H         1 801         0.3180
     24 H5         43.8109   -5.5281   25.3540 H         1 801         0.3180
     25 H6         44.9957   -1.9089   23.9575 H         1 801         0.3180
     26 H7         44.8678   -3.2900   22.8354 H         1 801         0.3180
     27 H8         44.0374   -1.0954   30.4311 H         1 801         0.2302
     28 H9         42.9105   -1.2049   34.3080 H         1 801         0.0749
     29 H10        42.4522   -3.3390   35.4851 H         1 801         0.0707
     30 H11        42.4422   -5.4579   34.1922 H         1 801         0.0671
     31 H12        43.0316   -5.5846   30.7374 H         1 801         0.2544
@<TRIPOS>BOND
     1    1    2 ar 
     2    1    6 ar 
     3    1    7 1  
     4    2    3 ar 
     5    3    4 ar 
     6    4    5 ar 
     7    4   10 1  
     8    5    6 ar 
     9    5   11 1  
    10    7    8 ar 
    11    7    9 ar 
    12   10   12 1  
    13   11   12 2  
    14   12   13 1  
    15   13   14 ar 
    16   13   18 ar 
    17   14   15 ar 
    18   15   16 ar 
    19   16   17 ar 
    20   17   18 ar 
    21   18   19 1  
    22    2   20 1  
    23    3   21 1  
    24    6   22 1  
    25    8   23 1  
    26    8   24 1  
    27    9   25 1  
    28    9   26 1  
    29   10   27 1  
    30   15   28 1  
    31   16   29 1  
    32   17   30 1  
    33   19   31 1  
@<TRIPOS>SUBSTRUCTURE
     1 801         1

