### 
### Created by X-TOOL on Mon Sep 10 21:12:49 2018
### 

@<TRIPOS>MOLECULE
1o33_ligand
   31    33     1     0     0
SMALL
GAST_HUCK


@<TRIPOS>ATOM
      1 C1         44.0750   -3.0370   26.3070 C.ar      1 801         0.0117
      2 C2         44.5310   -1.7030   26.3610 C.ar      1 801        -0.0689
      3 C3         44.4530   -0.9550   27.5220 C.ar      1 801        -0.0391
      4 C4         43.9220   -1.5510   28.6160 C.ar      1 801         0.0823
      5 C5         43.4640   -2.8170   28.6130 C.ar      1 801         0.0333
      6 C6         43.5210   -3.6060   27.4640 C.ar      1 801        -0.0555
      7 C7         44.1930   -3.7660   25.1090 C.cat     1 801         0.2292
      8 N1         43.9180   -5.0580   25.1100 N.pl3     1 801        -0.2732
      9 N2         44.5810   -3.1240   24.0140 N.pl3     1 801        -0.2732
     10 N3         43.7360   -1.1060   29.8050 N.pl3     1 801        -0.2489
     11 N4         42.9940   -3.1730   29.7830 N.2       1 801        -0.3040
     12 C8         43.2020   -2.0660   30.4840 C.2       1 801         0.1548
     13 C1'        42.9290   -1.9290   31.8370 C.ar      1 801         0.1348
     14 N2'        42.6890   -3.0300   32.5210 N.ar      1 801        -0.2910
     15 C3'        42.4260   -3.0450   33.8060 C.ar      1 801         0.0036
     16 C4'        42.3880   -1.8530   34.5100 C.ar      1 801        -0.0391
     17 C5'        42.6370   -0.6510   33.8370 C.ar      1 801        -0.0077
     18 C6'        42.9150   -0.6710   32.4720 C.ar      1 801         0.1359
     19 O6'        43.1600    0.5190   31.7860 O.3       1 801        -0.3190
     20 H1         44.9533   -1.2527   25.4699 H         1 801         0.0547
     21 H2         44.8039    0.0701   27.5549 H         1 801         0.0547
     22 H3         43.1498   -4.6245   27.4648 H         1 801         0.0554
     23 H4         44.0005   -5.6028   24.2398 H         1 801         0.3180
     24 H5         43.6211   -5.5207   25.9810 H         1 801         0.3180
     25 H6         44.7863   -2.1155   24.0538 H         1 801         0.3180
     26 H7         44.6767   -3.6343   23.1245 H         1 801         0.3180
     27 H8         43.9680   -0.1641   30.1514 H         1 801         0.2302
     28 H9         42.2396   -3.9845   34.3137 H         1 801         0.0749
     29 H10        42.1677   -1.8508   35.5714 H         1 801         0.0707
     30 H11        42.6136    0.2899   34.3748 H         1 801         0.0671
     31 H12        43.9153    0.9525   32.1658 H         1 801         0.2544
@<TRIPOS>BOND
     1    1    2 ar 
     2    1    6 ar 
     3    1    7 1  
     4    2    3 ar 
     5    3    4 ar 
     6    4    5 ar 
     7    4   10 1  
     8    5    6 ar 
     9    5   11 1  
    10    7    8 ar 
    11    7    9 ar 
    12   10   12 1  
    13   11   12 2  
    14   12   13 1  
    15   13   14 ar 
    16   13   18 ar 
    17   14   15 ar 
    18   15   16 ar 
    19   16   17 ar 
    20   17   18 ar 
    21   18   19 1  
    22    2   20 1  
    23    3   21 1  
    24    6   22 1  
    25    8   23 1  
    26    8   24 1  
    27    9   25 1  
    28    9   26 1  
    29   10   27 1  
    30   15   28 1  
    31   16   29 1  
    32   17   30 1  
    33   19   31 1  
@<TRIPOS>SUBSTRUCTURE
     1 801         1

