### 
### Created by X-TOOL on Mon Sep 10 21:12:50 2018
### 

@<TRIPOS>MOLECULE
1o34_ligand
   31    33     1     0     0
SMALL
GAST_HUCK


@<TRIPOS>ATOM
      1 C1         43.9810   -3.0230   26.2160 C.ar      1 801         0.0117
      2 C2         44.5110   -1.7140   26.2640 C.ar      1 801        -0.0689
      3 C3         44.4860   -0.9620   27.4130 C.ar      1 801        -0.0391
      4 C4         43.9310   -1.5300   28.5240 C.ar      1 801         0.0823
      5 C5         43.3970   -2.7740   28.5200 C.ar      1 801         0.0333
      6 C6         43.4050   -3.5600   27.3670 C.ar      1 801        -0.0555
      7 C7         44.0540   -3.7690   25.0350 C.cat     1 801         0.2292
      8 N1         43.7670   -5.0590   25.0530 N.pl3     1 801        -0.2732
      9 N2         44.4230   -3.1350   23.9350 N.pl3     1 801        -0.2732
     10 N3         43.7780   -1.0920   29.7220 N.pl3     1 801        -0.2489
     11 N4         42.9210   -3.1120   29.7000 N.2       1 801        -0.3040
     12 C8         43.1860   -2.0210   30.3930 C.2       1 801         0.1548
     13 C1'        42.9830   -1.8940   31.7530 C.ar      1 801         0.1348
     14 N2'        42.6900   -2.9800   32.4360 N.ar      1 801        -0.2910
     15 C3'        42.4890   -2.9900   33.7380 C.ar      1 801         0.0036
     16 C4'        42.5700   -1.7940   34.4430 C.ar      1 801        -0.0391
     17 C5'        42.8780   -0.6150   33.7670 C.ar      1 801        -0.0077
     18 C6'        43.1010   -0.6600   32.4020 C.ar      1 801         0.1359
     19 O6'        43.4180    0.4850   31.7020 O.3       1 801        -0.3190
     20 H1         44.9502   -1.2910   25.3678 H         1 801         0.0547
     21 H2         44.8910    0.0432   27.4370 H         1 801         0.0547
     22 H3         42.9772   -4.5560   27.3660 H         1 801         0.0554
     23 H4         43.8200   -5.6105   24.1847 H         1 801         0.3180
     24 H5         43.4903   -5.5128   25.9353 H         1 801         0.3180
     25 H6         44.6372   -2.1281   23.9682 H         1 801         0.3180
     26 H7         44.4963   -3.6480   23.0449 H         1 801         0.3180
     27 H8         44.0726   -0.1720   30.0794 H         1 801         0.2302
     28 H9         42.2637   -3.9172   34.2524 H         1 801         0.0749
     29 H10        42.3945   -1.7790   35.5126 H         1 801         0.0707
     30 H11        42.9421    0.3249   34.3033 H         1 801         0.0671
     31 H12        44.2220    0.8542   32.0483 H         1 801         0.2544
@<TRIPOS>BOND
     1    1    2 ar 
     2    1    6 ar 
     3    1    7 1  
     4    2    3 ar 
     5    3    4 ar 
     6    4    5 ar 
     7    4   10 1  
     8    5    6 ar 
     9    5   11 1  
    10    7    8 ar 
    11    7    9 ar 
    12   10   12 1  
    13   11   12 2  
    14   12   13 1  
    15   13   14 ar 
    16   13   18 ar 
    17   14   15 ar 
    18   15   16 ar 
    19   16   17 ar 
    20   17   18 ar 
    21   18   19 1  
    22    2   20 1  
    23    3   21 1  
    24    6   22 1  
    25    8   23 1  
    26    8   24 1  
    27    9   25 1  
    28    9   26 1  
    29   10   27 1  
    30   15   28 1  
    31   16   29 1  
    32   17   30 1  
    33   19   31 1  
@<TRIPOS>SUBSTRUCTURE
     1 801         1

