### 
### Created by X-TOOL on Mon Sep 10 21:12:49 2018
### 

@<TRIPOS>MOLECULE
1o35_ligand
   32    34     1     0     0
SMALL
GAST_HUCK


@<TRIPOS>ATOM
      1 C1         44.3020   -2.8610   26.6630 C.ar      1 802         0.0108
      2 C2         44.7860   -1.5240   26.6370 C.ar      1 802        -0.0697
      3 C3         44.7880   -0.7410   27.7960 C.ar      1 802        -0.0400
      4 C4         44.3120   -1.2930   28.9670 C.ar      1 802         0.0805
      5 C5         43.7690   -2.5260   29.0090 C.ar      1 802         0.0294
      6 C6         43.7580   -3.3510   27.8630 C.ar      1 802        -0.0569
      7 C7         44.3110   -3.6160   25.4790 C.cat     1 802         0.2290
      8 N1         44.1310   -4.9040   25.5110 N.pl3     1 802        -0.2732
      9 N2         44.5530   -3.0780   24.3050 N.pl3     1 802        -0.2732
     10 N3         44.1810   -0.7830   30.1530 N.pl3     1 802        -0.2512
     11 N4         43.3780   -2.8400   30.2310 N.2       1 802        -0.3105
     12 C8         43.6250   -1.7090   30.8870 C.2       1 802         0.1354
     13 C1'        43.3440   -1.5260   32.2390 C.ar      1 802         0.0633
     14 C2'        42.9840   -2.5940   33.0670 C.ar      1 802        -0.0181
     15 C3'        42.6920   -2.3630   34.4070 C.ar      1 802         0.1258
     16 F3'        42.3250   -3.3910   35.2510 F         1 802        -0.1915
     17 C4'        42.7420   -1.0770   34.9140 C.ar      1 802        -0.0321
     18 C5'        43.0700   -0.0010   34.0860 C.ar      1 802        -0.0278
     19 C6'        43.3780   -0.2310   32.7640 C.ar      1 802         0.1055
     20 O6'        43.7070    0.8320   31.9570 O.3       1 802        -0.3289
     21 H1         45.1577   -1.1068   25.7081 H         1 802         0.0541
     22 H2         45.1560    0.2784   27.7744 H         1 802         0.0544
     23 H3         43.3359   -4.3484   27.9080 H         1 802         0.0548
     24 H4         44.1397   -5.4471   24.6359 H         1 802         0.3180
     25 H5         43.9798   -5.3807   26.4115 H         1 802         0.3180
     26 H6         44.7028   -2.0621   24.2251 H         1 802         0.3180
     27 H7         44.5929   -3.6721   23.4646 H         1 802         0.3180
     28 H8         44.4594    0.1617   30.4546 H         1 802         0.2296
     29 H9         42.9327   -3.5995   32.6653 H         1 802         0.0619
     30 H10        42.5250   -0.9030   35.9617 H         1 802         0.0615
     31 H11        43.0820    1.0082   34.4816 H         1 802         0.0546
     32 H12        43.8923    0.5170   31.0801 H         1 802         0.2506
@<TRIPOS>BOND
     1    1    2 ar 
     2    1    6 ar 
     3    1    7 1  
     4    2    3 ar 
     5    3    4 ar 
     6    4    5 ar 
     7    4   10 1  
     8    5    6 ar 
     9    5   11 1  
    10    7    8 ar 
    11    7    9 ar 
    12   10   12 1  
    13   11   12 2  
    14   12   13 1  
    15   13   14 ar 
    16   13   19 ar 
    17   14   15 ar 
    18   15   16 1  
    19   15   17 ar 
    20   17   18 ar 
    21   18   19 ar 
    22   19   20 1  
    23    2   21 1  
    24    3   22 1  
    25    6   23 1  
    26    8   24 1  
    27    8   25 1  
    28    9   26 1  
    29    9   27 1  
    30   10   28 1  
    31   14   29 1  
    32   17   30 1  
    33   18   31 1  
    34   20   32 1  
@<TRIPOS>SUBSTRUCTURE
     1 802         1

