### 
### Created by X-TOOL on Mon Sep 10 21:12:50 2018
### 

@<TRIPOS>MOLECULE
1o36_ligand
   54    57     1     0     0
SMALL
GAST_HUCK


@<TRIPOS>ATOM
      1 C1         44.3040   -3.0640   26.2710 C.ar      1 607         0.0565
      2 C2         44.6840   -1.6960   26.2610 C.ar      1 607        -0.0263
      3 C3         44.6520   -0.8960   27.4160 C.ar      1 607         0.0065
      4 C4         44.2350   -1.5020   28.5660 C.ar      1 607         0.1455
      5 C5         43.8740   -2.7760   28.6260 C.ar      1 607         0.1456
      6 C6         43.8850   -3.6050   27.5140 C.ar      1 607         0.0030
      7 C7         44.3500   -3.8360   25.0790 C.cat     1 607         0.2402
      8 N1         44.1780   -5.1400   25.0960 N.pl3     1 607        -0.2722
      9 N2         44.5680   -3.2230   23.9400 N.pl3     1 607        -0.2722
     10 N3         44.1090   -1.0350   29.7590 N.pl3     1 607        -0.1993
     11 N4         43.5120   -3.1480   29.8460 N.2       1 607        -0.1647
     12 C8         43.6840   -2.0190   30.4880 C.2       1 607         0.2660
     13 C1'        43.4220   -1.9020   31.8690 C.ar      1 607         0.2101
     14 C2'        43.1040   -3.0060   32.6710 C.ar      1 607         0.0418
     15 C3'        42.8430   -2.8800   34.0280 C.ar      1 607         0.0529
     16 C31'       42.4670   -4.1250   34.8700 C.3       1 607         0.0896
     17 C32'       40.9580   -4.2980   34.6420 C.2       1 607         0.0649
     18 O33'       40.5990   -5.1040   33.8060 O.co2     1 607        -0.5630
     19 O34'       40.2030   -3.6120   35.3000 O.co2     1 607        -0.5630
     20 C42'       42.7830   -3.9810   36.4330 C.3       1 607         0.0347
     21 C43'       43.4210   -5.2510   37.1090 C.2       1 607         0.0406
     22 O44'       43.2000   -6.3530   36.6280 O.co2     1 607        -0.5686
     23 O45'       44.1200   -5.0800   38.1090 O.co2     1 607        -0.5686
     24 C4'        42.9110   -1.6360   34.5890 C.ar      1 607         0.0372
     25 C5'        43.2220   -0.4960   33.8670 C.ar      1 607         0.1411
     26 C6'        43.4750   -0.6550   32.5080 C.ar      1 607         0.2784
     27 O6'        43.7800    0.4470   31.7460 O.3       1 607        -0.2137
     28 C1''       43.2790    0.7330   34.5440 C.ar      1 607         0.0561
     29 C2''       44.4740    1.4400   34.7030 C.ar      1 607         0.1039
     30 C3''       44.5570    2.6350   35.4040 C.ar      1 607        -0.0185
     31 C4''       43.4290    3.1780   35.9740 C.ar      1 607        -0.0450
     32 C5''       42.2160    2.5230   35.8410 C.ar      1 607        -0.0468
     33 C6''       42.1430    1.3170   35.1350 C.ar      1 607        -0.0337
     34 N2''       45.6280    1.0830   34.2030 N.2       1 607        -0.2118
     35 HN2A       46.3250    1.7830   34.2150 O.2       1 607        -0.4875
     36 HN2B       45.5620    0.5610   33.3770 O.2       1 607        -0.4875
     37 H1         45.0110   -1.2521   25.3277 H         1 607         0.0909
     38 H2         44.9433    0.1479   27.3948 H         1 607         0.0678
     39 H3         43.5805   -4.6424   27.5928 H         1 607         0.0852
     40 H4         44.2162   -5.6760   24.2173 H         1 607         0.3180
     41 H5         44.0051   -5.6251   25.9880 H         1 607         0.3180
     42 H6         44.7032   -2.2021   23.9222 H         1 607         0.3180
     43 H7         44.6040   -3.7626   23.0634 H         1 607         0.3180
     44 H8         44.3061   -0.0735   30.0713 H         1 607         0.2415
     45 H9         43.0605   -3.9895   32.2171 H         1 607         0.0786
     46 H10        43.0112   -5.0016   34.4886 H         1 607         0.0816
     47 H11        41.8390   -3.7579   36.9516 H         1 607         0.0496
     48 H12        43.4803   -3.1403   36.5629 H         1 607         0.0496
     49 H13        42.7120   -1.5367   35.6499 H         1 607         0.1005
     50 H14        44.5664    0.8577   32.0857 H         1 607         0.3288
     51 H15        45.5109    3.1405   35.5023 H         1 607         0.0719
     52 H16        43.4890    4.1109   36.5228 H         1 607         0.0708
     53 H17        41.3216    2.9453   36.2846 H         1 607         0.0687
     54 H18        41.1849    0.8188   35.0407 H         1 607         0.0699
@<TRIPOS>BOND
     1    1    2 ar 
     2    1    6 ar 
     3    1    7 1  
     4    2    3 ar 
     5    3    4 ar 
     6    4    5 ar 
     7    4   10 1  
     8    5    6 ar 
     9    5   11 1  
    10    7    8 ar 
    11    7    9 ar 
    12   10   12 1  
    13   11   12 2  
    14   12   13 1  
    15   13   14 ar 
    16   13   26 ar 
    17   14   15 ar 
    18   15   16 1  
    19   15   24 ar 
    20   16   17 1  
    21   16   20 1  
    22   17   18 ar 
    23   17   19 ar 
    24   20   21 1  
    25   21   22 ar 
    26   21   23 ar 
    27   24   25 ar 
    28   25   26 ar 
    29   25   28 1  
    30   26   27 1  
    31   28   29 ar 
    32   28   33 ar 
    33   29   30 ar 
    34   29   34 1  
    35   30   31 ar 
    36   31   32 ar 
    37   32   33 ar 
    38   34   35 2  
    39   34   36 2  
    40    2   37 1  
    41    3   38 1  
    42    6   39 1  
    43    8   40 1  
    44    8   41 1  
    45    9   42 1  
    46    9   43 1  
    47   10   44 1  
    48   14   45 1  
    49   16   46 1  
    50   20   47 1  
    51   20   48 1  
    52   24   49 1  
    53   27   50 1  
    54   30   51 1  
    55   31   52 1  
    56   32   53 1  
    57   33   54 1  
@<TRIPOS>SUBSTRUCTURE
     1 607         1

