### 
### Created by X-TOOL on Mon Sep 10 21:12:50 2018
### 

@<TRIPOS>MOLECULE
1o37_ligand
   51    54     1     0     0
SMALL
GAST_HUCK


@<TRIPOS>ATOM
      1 C1         44.4980   -2.9990   26.1780 C.ar      1 653         0.0108
      2 C2         44.8270   -1.6290   26.2690 C.ar      1 653        -0.0697
      3 C3         44.7470   -0.8890   27.4430 C.ar      1 653        -0.0400
      4 C4         44.3220   -1.5550   28.5580 C.ar      1 653         0.0805
      5 C5         44.0010   -2.8480   28.5460 C.ar      1 653         0.0294
      6 C6         44.0660   -3.6350   27.3920 C.ar      1 653        -0.0569
      7 C7         44.5970   -3.6560   24.9010 C.cat     1 653         0.2290
      8 N1         44.3260   -4.9420   24.7860 N.pl3     1 653        -0.2732
      9 N2         44.9420   -2.9510   23.8290 N.pl3     1 653        -0.2732
     10 N3         44.1480   -1.1200   29.7620 N.pl3     1 653        -0.2512
     11 N4         43.6220   -3.2620   29.7350 N.2       1 653        -0.3106
     12 C8         43.7430   -2.1340   30.4310 C.2       1 653         0.1349
     13 C1'        43.4620   -2.0560   31.8270 C.ar      1 653         0.0608
     14 C2'        43.0700   -3.2040   32.5180 C.ar      1 653        -0.0493
     15 C3'        42.7820   -3.1860   33.8820 C.ar      1 653        -0.0425
     16 C31'       42.3010   -4.1650   34.7970 C.3       1 653         0.0172
     17 C32'       40.8180   -4.4770   34.5760 C.3       1 653        -0.0271
     18 N33'       40.5260   -5.8350   35.1270 N.4       1 653         0.2198
     19 C4'        42.8870   -2.0100   34.6010 C.ar      1 653        -0.0552
     20 C5'        43.2720   -0.8370   33.9940 C.ar      1 653         0.0134
     21 C6'        43.5500   -0.8710   32.6030 C.ar      1 653         0.1137
     22 O6'        43.8870    0.3130   32.0000 O.3       1 653        -0.3275
     23 C1''       43.4070    0.3040   34.7740 C.ar      1 653        -0.0218
     24 C2''       44.6160    1.0330   34.8030 C.ar      1 653        -0.0569
     25 C3''       44.7790    2.1860   35.5950 C.ar      1 653        -0.0631
     26 C4''       43.7310    2.6460   36.3850 C.ar      1 653        -0.0634
     27 C5''       42.5200    1.9470   36.3770 C.ar      1 653        -0.0631
     28 C6''       42.3600    0.7880   35.5810 C.ar      1 653        -0.0569
     29 H1         45.1619   -1.1243   25.3700 H         1 653         0.0541
     30 H2         45.0084    0.1626   27.4725 H         1 653         0.0544
     31 H3         43.8004   -4.6858   27.4124 H         1 653         0.0548
     32 H4         44.3995   -5.4037   23.8682 H         1 653         0.3180
     33 H5         44.0409   -5.4843   25.6140 H         1 653         0.3180
     34 H6         45.1535   -1.9470   23.9191 H         1 653         0.3180
     35 H7         44.9979   -3.4085   22.9079 H         1 653         0.3180
     36 H8         44.3020   -0.1627   30.1094 H         1 653         0.2296
     37 H9         42.9869   -4.1394   31.9766 H         1 653         0.0574
     38 H10        42.4360   -3.7897   35.8221 H         1 653         0.0458
     39 H11        42.8819   -5.0898   34.6655 H         1 653         0.0458
     40 H12        40.5923   -4.4581   33.4996 H         1 653         0.0834
     41 H13        40.2011   -3.7274   35.0932 H         1 653         0.0834
     42 H14        39.5516   -6.0519   34.9872 H         1 653         0.1996
     43 H15        40.7354   -5.8498   36.1129 H         1 653         0.1996
     44 H16        41.0939   -6.5194   34.6525 H         1 653         0.1996
     45 H17        42.6621   -2.0121   35.6614 H         1 653         0.0570
     46 H18        44.6713    0.6622   32.4067 H         1 653         0.2516
     47 H19        45.4468    0.6936   34.1950 H         1 653         0.0607
     48 H20        45.7243    2.7166   35.5888 H         1 653         0.0613
     49 H21        43.8510    3.5324   36.9973 H         1 653         0.0603
     50 H22        41.6950    2.2966   36.9870 H         1 653         0.0613
     51 H23        41.4121    0.2623   35.5929 H         1 653         0.0607
@<TRIPOS>BOND
     1    1    2 ar 
     2    1    6 ar 
     3    1    7 1  
     4    2    3 ar 
     5    3    4 ar 
     6    4    5 ar 
     7    4   10 1  
     8    5    6 ar 
     9    5   11 1  
    10    7    8 ar 
    11    7    9 ar 
    12   10   12 1  
    13   11   12 2  
    14   12   13 1  
    15   13   14 ar 
    16   13   21 ar 
    17   14   15 ar 
    18   15   16 1  
    19   15   19 ar 
    20   16   17 1  
    21   17   18 1  
    22   19   20 ar 
    23   20   21 ar 
    24   20   23 1  
    25   21   22 1  
    26   23   24 ar 
    27   23   28 ar 
    28   24   25 ar 
    29   25   26 ar 
    30   26   27 ar 
    31   27   28 ar 
    32    2   29 1  
    33    3   30 1  
    34    6   31 1  
    35    8   32 1  
    36    8   33 1  
    37    9   34 1  
    38    9   35 1  
    39   10   36 1  
    40   14   37 1  
    41   16   38 1  
    42   16   39 1  
    43   17   40 1  
    44   17   41 1  
    45   18   42 1  
    46   18   43 1  
    47   18   44 1  
    48   19   45 1  
    49   22   46 1  
    50   24   47 1  
    51   25   48 1  
    52   26   49 1  
    53   27   50 1  
    54   28   51 1  
@<TRIPOS>SUBSTRUCTURE
     1 653         1

