### 
### Created by X-TOOL on Mon Sep 10 21:12:50 2018
### 

@<TRIPOS>MOLECULE
1o38_ligand
   51    54     1     0     0
SMALL
GAST_HUCK


@<TRIPOS>ATOM
      1 C1         44.0220   -3.0310   26.2340 C.ar      1 653         0.0108
      2 C2         44.3330   -1.6250   26.2420 C.ar      1 653        -0.0697
      3 C3         44.2310   -0.8210   27.3730 C.ar      1 653        -0.0400
      4 C4         43.8170   -1.4340   28.5140 C.ar      1 653         0.0805
      5 C5         43.5170   -2.7500   28.5750 C.ar      1 653         0.0294
      6 C6         43.5910   -3.6040   27.4670 C.ar      1 653        -0.0569
      7 C7         44.1530   -3.7910   25.0430 C.cat     1 653         0.2290
      8 N1         43.9290   -5.0950   25.0620 N.pl3     1 653        -0.2732
      9 N2         44.4950   -3.1640   23.9270 N.pl3     1 653        -0.2732
     10 N3         43.6520   -0.9510   29.6990 N.pl3     1 653        -0.2512
     11 N4         43.1500   -3.1160   29.7900 N.2       1 653        -0.3106
     12 C8         43.2560   -1.9520   30.4260 C.2       1 653         0.1349
     13 C1'        43.0090   -1.8400   31.8180 C.ar      1 653         0.0608
     14 C2'        42.6560   -2.9710   32.5930 C.ar      1 653        -0.0493
     15 C3'        42.4060   -2.8870   33.9640 C.ar      1 653        -0.0425
     16 C31'       42.0430   -4.1490   34.8160 C.3       1 653         0.0172
     17 C32'       40.5370   -4.5580   34.6550 C.3       1 653        -0.0271
     18 N33'       40.3380   -5.9590   35.2030 N.4       1 653         0.2198
     19 C4'        42.5060   -1.6430   34.5750 C.ar      1 653        -0.0552
     20 C5'        42.8490   -0.4840   33.8720 C.ar      1 653         0.0134
     21 C6'        43.0940   -0.6050   32.4980 C.ar      1 653         0.1137
     22 O6'        43.4330    0.5290   31.8090 O.3       1 653        -0.3275
     23 C1''       42.9280    0.7280   34.5730 C.ar      1 653        -0.0218
     24 C2''       44.1210    1.4670   34.6850 C.ar      1 653        -0.0569
     25 C3''       44.1730    2.6630   35.4210 C.ar      1 653        -0.0631
     26 C4''       43.0420    3.1580   36.0620 C.ar      1 653        -0.0634
     27 C5''       41.8450    2.4450   35.9660 C.ar      1 653        -0.0631
     28 C6''       41.7920    1.2510   35.2280 C.ar      1 653        -0.0569
     29 H1         44.6646   -1.1681   25.3166 H         1 653         0.0541
     30 H2         44.4686    0.2363   27.3460 H         1 653         0.0544
     31 H3         43.3321   -4.6539   27.5433 H         1 653         0.0548
     32 H4         44.0241   -5.6465   24.1973 H         1 653         0.3180
     33 H5         43.6595   -5.5585   25.9415 H         1 653         0.3180
     34 H6         44.6640   -2.1480   23.9382 H         1 653         0.3180
     35 H7         44.5918   -3.6926   23.0483 H         1 653         0.3180
     36 H8         43.8023    0.0214   30.0037 H         1 653         0.2296
     37 H9         42.5771   -3.9357   32.1050 H         1 653         0.0574
     38 H10        42.2393   -3.9296   35.8759 H         1 653         0.0458
     39 H11        42.6750   -4.9891   34.4922 H         1 653         0.0458
     40 H12        40.2621   -4.5373   33.5901 H         1 653         0.0834
     41 H13        39.9027   -3.8521   35.2113 H         1 653         0.0834
     42 H14        39.3712   -6.2254   35.1012 H         1 653         0.1996
     43 H15        40.5906   -5.9772   36.1787 H         1 653         0.1996
     44 H16        40.9199   -6.6051   34.6931 H         1 653         0.1996
     45 H17        42.3104   -1.5681   35.6386 H         1 653         0.0570
     46 H18        44.2309    0.8933   32.1739 H         1 653         0.2516
     47 H19        45.0174    1.1063   34.1937 H         1 653         0.0607
     48 H20        45.1077    3.2076   35.4902 H         1 653         0.0613
     49 H21        43.0890    4.0821   36.6268 H         1 653         0.0603
     50 H22        40.9546    2.8139   36.4622 H         1 653         0.0613
     51 H23        40.8518    0.7158   35.1594 H         1 653         0.0607
@<TRIPOS>BOND
     1    1    2 ar 
     2    1    6 ar 
     3    1    7 1  
     4    2    3 ar 
     5    3    4 ar 
     6    4    5 ar 
     7    4   10 1  
     8    5    6 ar 
     9    5   11 1  
    10    7    8 ar 
    11    7    9 ar 
    12   10   12 1  
    13   11   12 2  
    14   12   13 1  
    15   13   14 ar 
    16   13   21 ar 
    17   14   15 ar 
    18   15   16 1  
    19   15   19 ar 
    20   16   17 1  
    21   17   18 1  
    22   19   20 ar 
    23   20   21 ar 
    24   20   23 1  
    25   21   22 1  
    26   23   24 ar 
    27   23   28 ar 
    28   24   25 ar 
    29   25   26 ar 
    30   26   27 ar 
    31   27   28 ar 
    32    2   29 1  
    33    3   30 1  
    34    6   31 1  
    35    8   32 1  
    36    8   33 1  
    37    9   34 1  
    38    9   35 1  
    39   10   36 1  
    40   14   37 1  
    41   16   38 1  
    42   16   39 1  
    43   17   40 1  
    44   17   41 1  
    45   18   42 1  
    46   18   43 1  
    47   18   44 1  
    48   19   45 1  
    49   22   46 1  
    50   24   47 1  
    51   25   48 1  
    52   26   49 1  
    53   27   50 1  
    54   28   51 1  
@<TRIPOS>SUBSTRUCTURE
     1 653         1

