### 
### Created by X-TOOL on Mon Sep 10 21:12:50 2018
### 

@<TRIPOS>MOLECULE
1o39_ligand
   42    45     1     0     0
SMALL
GAST_HUCK


@<TRIPOS>ATOM
      1 C1         44.2740   -3.0250   25.9010 C.ar      1 780         0.0108
      2 C2         44.7050   -1.6710   25.9980 C.ar      1 780        -0.0697
      3 C3         44.6550   -0.9290   27.1860 C.ar      1 780        -0.0401
      4 C4         44.1650   -1.5680   28.2820 C.ar      1 780         0.0805
      5 C5         43.7430   -2.8330   28.2540 C.ar      1 780         0.0294
      6 C6         43.7710   -3.6160   27.0950 C.ar      1 780        -0.0569
      7 C7         44.3490   -3.7300   24.6640 C.cat     1 780         0.2290
      8 N1         44.0340   -5.0090   24.5820 N.pl3     1 780        -0.2732
      9 N2         44.7390   -3.0740   23.5990 N.pl3     1 780        -0.2732
     10 N3         43.9950   -1.1360   29.4880 N.pl3     1 780        -0.2511
     11 N4         43.2950   -3.2380   29.4330 N.2       1 780        -0.3106
     12 C8         43.4870   -2.1310   30.1340 C.2       1 780         0.1366
     13 C1'        43.2510   -2.0680   31.5330 C.ar      1 780         0.0671
     14 C2'        42.8990   -3.2180   32.2420 C.ar      1 780        -0.0510
     15 C3'        42.6650   -3.1810   33.6070 C.ar      1 780        -0.0663
     16 C4'        42.7710   -2.0060   34.3100 C.ar      1 780        -0.0572
     17 C5'        43.1180   -0.8120   33.6870 C.ar      1 780         0.0195
     18 C6'        43.3560   -0.8540   32.2840 C.ar      1 780         0.1203
     19 O6'        43.6960    0.3170   31.6220 O.3       1 780        -0.3234
     20 C1''       43.2170    0.3590   34.4670 C.ar      1 780        -0.0204
     21 C2''       44.3940    1.1260   34.5490 C.ar      1 780        -0.0568
     22 C3''       44.4710    2.2860   35.3310 C.ar      1 780        -0.0632
     23 C4''       43.3650    2.7090   36.0560 C.ar      1 780        -0.0634
     24 C5''       42.1910    1.9690   35.9930 C.ar      1 780        -0.0632
     25 C6''       42.1230    0.8190   35.2140 C.ar      1 780        -0.0568
     26 H1         45.0916   -1.1895   25.1071 H         1 780         0.0541
     27 H2         44.9897    0.1012   27.2290 H         1 780         0.0544
     28 H3         43.4204   -4.6417   27.1055 H         1 780         0.0548
     29 H4         44.0958   -5.4976   23.6774 H         1 780         0.3180
     30 H5         43.7263   -5.5185   25.4226 H         1 780         0.3180
     31 H6         44.9834   -2.0759   23.6697 H         1 780         0.3180
     32 H7         44.8012   -3.5564   22.6911 H         1 780         0.3180
     33 H8         44.2171   -0.1994   29.8546 H         1 780         0.2296
     34 H9         42.8068   -4.1598   31.7133 H         1 780         0.0636
     35 H10        42.3944   -4.0925   34.1276 H         1 780         0.0542
     36 H11        42.5795   -2.0093   35.3769 H         1 780         0.0629
     37 H12        44.4998    0.6652   31.9895 H         1 780         0.2537
     38 H13        45.2674    0.8098   33.9903 H         1 780         0.0607
     39 H14        45.3940    2.8532   35.3700 H         1 780         0.0613
     40 H15        43.4169    3.6053   36.6635 H         1 780         0.0603
     41 H16        41.3216    2.2903   36.5551 H         1 780         0.0613
     42 H17        41.1946    0.2603   35.1832 H         1 780         0.0607
@<TRIPOS>BOND
     1    1    2 ar 
     2    1    6 ar 
     3    1    7 1  
     4    2    3 ar 
     5    3    4 ar 
     6    4    5 ar 
     7    4   10 1  
     8    5    6 ar 
     9    5   11 1  
    10    7    8 ar 
    11    7    9 ar 
    12   10   12 1  
    13   11   12 2  
    14   12   13 1  
    15   13   14 ar 
    16   13   18 ar 
    17   14   15 ar 
    18   15   16 ar 
    19   16   17 ar 
    20   17   18 ar 
    21   17   20 1  
    22   18   19 1  
    23   20   21 ar 
    24   20   25 ar 
    25   21   22 ar 
    26   22   23 ar 
    27   23   24 ar 
    28   24   25 ar 
    29    2   26 1  
    30    3   27 1  
    31    6   28 1  
    32    8   29 1  
    33    8   30 1  
    34    9   31 1  
    35    9   32 1  
    36   10   33 1  
    37   14   34 1  
    38   15   35 1  
    39   16   36 1  
    40   19   37 1  
    41   21   38 1  
    42   22   39 1  
    43   23   40 1  
    44   24   41 1  
    45   25   42 1  
@<TRIPOS>SUBSTRUCTURE
     1 780         1

