### 
### Created by X-TOOL on Mon Sep 10 21:12:49 2018
### 

@<TRIPOS>MOLECULE
1o3b_ligand
   42    45     1     0     0
SMALL
GAST_HUCK


@<TRIPOS>ATOM
      1 C1         44.3240   -2.9170   26.5310 C.ar      1 780         0.0108
      2 C2         44.7870   -1.5640   26.5240 C.ar      1 780        -0.0697
      3 C3         44.7780   -0.7470   27.6710 C.ar      1 780        -0.0401
      4 C4         44.3040   -1.3040   28.8230 C.ar      1 780         0.0805
      5 C5         43.8610   -2.5680   28.8750 C.ar      1 780         0.0294
      6 C6         43.8470   -3.4190   27.7680 C.ar      1 780        -0.0569
      7 C7         44.3460   -3.6970   25.3680 C.cat     1 780         0.2290
      8 N1         44.1500   -4.9930   25.4240 N.pl3     1 780        -0.2732
      9 N2         44.5590   -3.1040   24.2170 N.pl3     1 780        -0.2732
     10 N3         44.1900   -0.8020   30.0110 N.pl3     1 780        -0.2511
     11 N4         43.4640   -2.9130   30.0810 N.2       1 780        -0.3106
     12 C8         43.6990   -1.7780   30.7160 C.2       1 780         0.1366
     13 C1'        43.3550   -1.6750   32.0630 C.ar      1 780         0.0671
     14 C2'        43.0420   -2.8080   32.8140 C.ar      1 780        -0.0510
     15 C3'        42.6950   -2.7250   34.1500 C.ar      1 780        -0.0663
     16 C4'        42.6490   -1.4910   34.7670 C.ar      1 780        -0.0572
     17 C5'        42.9520   -0.3070   34.0770 C.ar      1 780         0.0195
     18 C6'        43.3020   -0.4460   32.7150 C.ar      1 780         0.1203
     19 O6'        43.6250    0.6460   31.9490 O.3       1 780        -0.3234
     20 C1''       42.8910    0.9280   34.7500 C.ar      1 780        -0.0204
     21 C2''       43.9520    1.8180   34.7220 C.ar      1 780        -0.0568
     22 C3''       43.9300    3.0260   35.3780 C.ar      1 780        -0.0632
     23 C4''       42.8160    3.3890   36.1030 C.ar      1 780        -0.0634
     24 C5''       41.7270    2.5380   36.1640 C.ar      1 780        -0.0632
     25 C6''       41.7680    1.3200   35.4940 C.ar      1 780        -0.0568
     26 H1         45.1613   -1.1491   25.5951 H         1 780         0.0541
     27 H2         45.1314    0.2773   27.6402 H         1 780         0.0544
     28 H3         43.4813   -4.4360   27.8522 H         1 780         0.0548
     29 H4         44.1689   -5.5545   24.5607 H         1 780         0.3180
     30 H5         43.9772   -5.4490   26.3313 H         1 780         0.3180
     31 H6         44.7119   -2.0860   24.1827 H         1 780         0.3180
     32 H7         44.5733   -3.6565   23.3479 H         1 780         0.3180
     33 H8         44.4319    0.1488   30.3245 H         1 780         0.2296
     34 H9         43.0716   -3.7809   32.3369 H         1 780         0.0636
     35 H10        42.4605   -3.6235   34.7094 H         1 780         0.0542
     36 H11        42.3712   -1.4349   35.8133 H         1 780         0.0629
     37 H12        43.8310    0.3623   31.0661 H         1 780         0.2537
     38 H13        44.8383    1.5504   34.1582 H         1 780         0.0607
     39 H14        44.7853    3.6899   35.3251 H         1 780         0.0613
     40 H15        42.7929    4.3391   36.6243 H         1 780         0.0603
     41 H16        40.8467    2.8190   36.7308 H         1 780         0.0613
     42 H17        40.9117    0.6576   35.5479 H         1 780         0.0607
@<TRIPOS>BOND
     1    1    2 ar 
     2    1    6 ar 
     3    1    7 1  
     4    2    3 ar 
     5    2   26 1  
     6    3    4 ar 
     7    3   27 1  
     8    4    5 ar 
     9    4   10 1  
    10    5    6 ar 
    11    5   11 1  
    12    6   28 1  
    13    7    8 ar 
    14    7    9 ar 
    15    8   29 1  
    16    8   30 1  
    17    9   31 1  
    18    9   32 1  
    19   10   12 1  
    20   10   33 1  
    21   11   12 2  
    22   12   13 1  
    23   13   14 ar 
    24   13   18 ar 
    25   14   15 ar 
    26   14   34 1  
    27   15   16 ar 
    28   15   35 1  
    29   16   17 ar 
    30   16   36 1  
    31   17   18 ar 
    32   17   20 1  
    33   18   19 1  
    34   20   21 ar 
    35   20   25 ar 
    36   21   22 ar 
    37   19   37 1  
    38   22   23 ar 
    39   21   38 1  
    40   23   24 ar 
    41   22   39 1  
    42   24   25 ar 
    43   23   40 1  
    44   24   41 1  
    45   25   42 1  
@<TRIPOS>SUBSTRUCTURE
     1 780         1

