### 
### Created by X-TOOL on Mon Sep 10 21:12:49 2018
### 

@<TRIPOS>MOLECULE
1o3c_ligand
   42    45     1     0     0
SMALL
GAST_HUCK


@<TRIPOS>ATOM
      1 C1         44.3310   -2.8890   26.5230 C.ar      1 780         0.0108
      2 C2         44.7660   -1.5300   26.5360 C.ar      1 780        -0.0697
      3 C3         44.7590   -0.7320   27.6890 C.ar      1 780        -0.0401
      4 C4         44.3090   -1.3210   28.8200 C.ar      1 780         0.0805
      5 C5         43.8950   -2.5930   28.8680 C.ar      1 780         0.0294
      6 C6         43.8820   -3.4230   27.7500 C.ar      1 780        -0.0569
      7 C7         44.3590   -3.6570   25.3440 C.cat     1 780         0.2290
      8 N1         44.1300   -4.9500   25.3840 N.pl3     1 780        -0.2732
      9 N2         44.6110   -3.0680   24.1950 N.pl3     1 780        -0.2732
     10 N3         44.2090   -0.8350   30.0140 N.pl3     1 780        -0.2511
     11 N4         43.5170   -2.9620   30.0840 N.2       1 780        -0.3106
     12 C8         43.7440   -1.8260   30.7210 C.2       1 780         0.1366
     13 C1'        43.4140   -1.7110   32.0690 C.ar      1 780         0.0671
     14 C2'        43.0880   -2.8300   32.8300 C.ar      1 780        -0.0510
     15 C3'        42.7560   -2.7150   34.1610 C.ar      1 780        -0.0663
     16 C4'        42.7420   -1.4770   34.7620 C.ar      1 780        -0.0572
     17 C5'        43.0610   -0.2960   34.0580 C.ar      1 780         0.0195
     18 C6'        43.3940   -0.4630   32.6990 C.ar      1 780         0.1203
     19 O6'        43.7350    0.5980   31.8960 O.3       1 780        -0.3234
     20 C1''       43.0140    0.9360   34.7450 C.ar      1 780        -0.0204
     21 C2''       44.0810    1.8250   34.7700 C.ar      1 780        -0.0568
     22 C3''       44.0310    3.0160   35.4770 C.ar      1 780        -0.0632
     23 C4''       42.8900    3.3580   36.1880 C.ar      1 780        -0.0634
     24 C5''       41.8070    2.5030   36.1900 C.ar      1 780        -0.0632
     25 C6''       41.8710    1.3120   35.4770 C.ar      1 780        -0.0568
     26 H1         45.1192   -1.0931   25.6090 H         1 780         0.0541
     27 H2         45.0952    0.2984   27.6745 H         1 780         0.0544
     28 H3         43.5374   -4.4484   27.8199 H         1 780         0.0548
     29 H4         44.1526   -5.5041   24.5160 H         1 780         0.3180
     30 H5         43.9279   -5.4096   26.2833 H         1 780         0.3180
     31 H6         44.7904   -2.0542   24.1644 H         1 780         0.3180
     32 H7         44.6289   -3.6206   23.3260 H         1 780         0.3180
     33 H8         44.4429    0.1161   30.3328 H         1 780         0.2296
     34 H9         43.0957   -3.8097   32.3661 H         1 780         0.0636
     35 H10        42.5056   -3.5994   34.7356 H         1 780         0.0542
     36 H11        42.4772   -1.4066   35.8108 H         1 780         0.0629
     37 H12        43.9239    0.2828   31.0199 H         1 780         0.2537
     38 H13        44.9816    1.5794   34.2189 H         1 780         0.0607
     39 H14        44.8861    3.6823   35.4744 H         1 780         0.0613
     40 H15        42.8495    4.2909   36.7385 H         1 780         0.0603
     41 H16        40.9114    2.7589   36.7446 H         1 780         0.0613
     42 H17        41.0125    0.6502   35.4844 H         1 780         0.0607
@<TRIPOS>BOND
     1    1    2 ar 
     2    1    6 ar 
     3    1    7 1  
     4    2    3 ar 
     5    2   26 1  
     6    3    4 ar 
     7    3   27 1  
     8    4    5 ar 
     9    4   10 1  
    10    5    6 ar 
    11    5   11 1  
    12    6   28 1  
    13    7    8 ar 
    14    7    9 ar 
    15    8   29 1  
    16    8   30 1  
    17    9   31 1  
    18    9   32 1  
    19   10   12 1  
    20   10   33 1  
    21   11   12 2  
    22   12   13 1  
    23   13   14 ar 
    24   13   18 ar 
    25   14   15 ar 
    26   14   34 1  
    27   15   16 ar 
    28   15   35 1  
    29   16   17 ar 
    30   16   36 1  
    31   17   18 ar 
    32   17   20 1  
    33   18   19 1  
    34   20   21 ar 
    35   20   25 ar 
    36   21   22 ar 
    37   19   37 1  
    38   22   23 ar 
    39   21   38 1  
    40   23   24 ar 
    41   22   39 1  
    42   24   25 ar 
    43   23   40 1  
    44   24   41 1  
    45   25   42 1  
@<TRIPOS>SUBSTRUCTURE
     1 780         1

