### 
### Created by X-TOOL on Mon Sep 10 21:12:50 2018
### 

@<TRIPOS>MOLECULE
1o3d_ligand
   42    45     1     0     0
SMALL
GAST_HUCK


@<TRIPOS>ATOM
      1 C1         44.0740   -3.0450   26.1440 C.ar      1 780         0.0108
      2 C2         44.3730   -1.6480   26.1430 C.ar      1 780        -0.0697
      3 C3         44.2860   -0.8450   27.2840 C.ar      1 780        -0.0401
      4 C4         43.8980   -1.4660   28.4440 C.ar      1 780         0.0805
      5 C5         43.6130   -2.7750   28.5110 C.ar      1 780         0.0294
      6 C6         43.6830   -3.6180   27.3890 C.ar      1 780        -0.0569
      7 C7         44.1900   -3.7910   24.9550 C.cat     1 780         0.2290
      8 N1         43.9180   -5.0750   24.9340 N.pl3     1 780        -0.2732
      9 N2         44.5740   -3.1680   23.8560 N.pl3     1 780        -0.2732
     10 N3         43.7480   -1.0060   29.6280 N.pl3     1 780        -0.2511
     11 N4         43.2670   -3.1460   29.7330 N.2       1 780        -0.3106
     12 C8         43.3750   -1.9840   30.3600 C.2       1 780         0.1366
     13 C1'        43.1120   -1.8690   31.7450 C.ar      1 780         0.0671
     14 C2'        42.7840   -2.9940   32.5200 C.ar      1 780        -0.0510
     15 C3'        42.5220   -2.8930   33.8830 C.ar      1 780        -0.0663
     16 C4'        42.5840   -1.6720   34.5030 C.ar      1 780        -0.0572
     17 C5'        42.9040   -0.5010   33.8060 C.ar      1 780         0.0195
     18 C6'        43.1620   -0.6300   32.4260 C.ar      1 780         0.1203
     19 O6'        43.4600    0.5010   31.7040 O.3       1 780        -0.3234
     20 C1''       42.9640    0.7150   34.5110 C.ar      1 780        -0.0204
     21 C2''       44.1120    1.5220   34.5090 C.ar      1 780        -0.0568
     22 C3''       44.1810    2.7080   35.2320 C.ar      1 780        -0.0632
     23 C4''       43.0960    3.1220   35.9770 C.ar      1 780        -0.0634
     24 C5''       41.9460    2.3580   36.0050 C.ar      1 780        -0.0632
     25 C6''       41.8830    1.1720   35.2810 C.ar      1 780        -0.0568
     26 H1         44.6826   -1.1880   25.2115 H         1 780         0.0541
     27 H2         44.5135    0.2144   27.2537 H         1 780         0.0544
     28 H3         43.4466   -4.6730   27.4680 H         1 780         0.0548
     29 H4         44.0079   -5.6062   24.0561 H         1 780         0.3180
     30 H5         43.6147   -5.5513   25.7954 H         1 780         0.3180
     31 H6         44.7852   -2.1602   23.8824 H         1 780         0.3180
     32 H7         44.6623   -3.6898   22.9723 H         1 780         0.3180
     33 H8         43.8990   -0.0337   29.9326 H         1 780         0.2296
     34 H9         42.7337   -3.9664   32.0436 H         1 780         0.0636
     35 H10        42.2691   -3.7791   34.4539 H         1 780         0.0542
     36 H11        42.3789   -1.6114   35.5657 H         1 780         0.0629
     37 H12        44.2423    0.9057   32.0601 H         1 780         0.2537
     38 H13        44.9715    1.2114   33.9260 H         1 780         0.0607
     39 H14        45.0851    3.3057   35.2103 H         1 780         0.0613
     40 H15        43.1463    4.0468   36.5402 H         1 780         0.0603
     41 H16        41.0933    2.6822   36.5906 H         1 780         0.0613
     42 H17        40.9730    0.5838   35.3123 H         1 780         0.0607
@<TRIPOS>BOND
     1    1    2 ar 
     2    1    6 ar 
     3    1    7 1  
     4    2    3 ar 
     5    3    4 ar 
     6    4    5 ar 
     7    4   10 1  
     8    5    6 ar 
     9    5   11 1  
    10    7    8 ar 
    11    7    9 ar 
    12   10   12 1  
    13   11   12 2  
    14   12   13 1  
    15   13   14 ar 
    16   13   18 ar 
    17   14   15 ar 
    18   15   16 ar 
    19   16   17 ar 
    20   17   18 ar 
    21   17   20 1  
    22   18   19 1  
    23   20   21 ar 
    24   20   25 ar 
    25   21   22 ar 
    26   22   23 ar 
    27   23   24 ar 
    28   24   25 ar 
    29    2   26 1  
    30    3   27 1  
    31    6   28 1  
    32    8   29 1  
    33    8   30 1  
    34    9   31 1  
    35    9   32 1  
    36   10   33 1  
    37   14   34 1  
    38   15   35 1  
    39   16   36 1  
    40   19   37 1  
    41   21   38 1  
    42   22   39 1  
    43   23   40 1  
    44   24   41 1  
    45   25   42 1  
@<TRIPOS>SUBSTRUCTURE
     1 780         1

