### 
### Created by X-TOOL on Mon Sep 10 21:12:49 2018
### 

@<TRIPOS>MOLECULE
1o3e_ligand
   43    46     1     0     0
SMALL
GAST_HUCK


@<TRIPOS>ATOM
      1 C1         44.3120   -3.0750   26.4970 C.ar      1 696         0.0081
      2 C2         44.6700   -1.6920   26.4710 C.ar      1 696        -0.0716
      3 C3         44.6720   -0.8720   27.6030 C.ar      1 696        -0.0437
      4 C4         44.3020   -1.4620   28.7630 C.ar      1 696         0.0625
      5 C5         43.9530   -2.7800   28.8630 C.ar      1 696        -0.0269
      6 C6         43.9430   -3.6280   27.7490 C.ar      1 696        -0.0699
      7 C7         44.3430   -3.8310   25.3190 C.cat     1 696         0.2284
      8 N1         44.0400   -5.1120   25.3400 N.pl3     1 696        -0.2733
      9 N2         44.6870   -3.2250   24.1970 N.pl3     1 696        -0.2733
     10 N3         44.2120   -1.0010   29.9660 N.pl3     1 696        -0.2762
     11 CN4        43.6470   -3.1350   30.1200 C.2       1 696        -0.0577
     12 C8         43.8430   -1.9850   30.7110 C.2       1 696         0.0606
     13 C1'        43.5710   -1.8430   32.0690 C.ar      1 696         0.0381
     14 C2'        43.3280   -2.9750   32.8530 C.ar      1 696        -0.0591
     15 C3'        43.0450   -2.8810   34.2010 C.ar      1 696        -0.0712
     16 C4'        42.9980   -1.6440   34.8050 C.ar      1 696        -0.0615
     17 C5'        43.2290   -0.4620   34.0680 C.ar      1 696         0.0146
     18 C6'        43.5180   -0.5850   32.6990 C.ar      1 696         0.1121
     19 O6'        43.7790    0.5550   31.9530 O.3       1 696        -0.3267
     20 C1''       43.1620    0.7840   34.7020 C.ar      1 696        -0.0215
     21 C2''       44.1870    1.7290   34.5880 C.ar      1 696        -0.0570
     22 C3''       44.1240    2.9570   35.2250 C.ar      1 696        -0.0632
     23 C4''       43.0300    3.2880   36.0040 C.ar      1 696        -0.0635
     24 C5''       41.9850    2.3730   36.1400 C.ar      1 696        -0.0632
     25 C6''       42.0560    1.1370   35.4920 C.ar      1 696        -0.0570
     26 H1         44.9558   -1.2546   25.5212 H         1 696         0.0528
     27 H2         44.9531    0.1738   27.5544 H         1 696         0.0539
     28 H3         43.6628   -4.6712   27.8407 H         1 696         0.0531
     29 H4         44.0651   -5.6615   24.4692 H         1 696         0.3180
     30 H5         43.7778   -5.5647   26.2273 H         1 696         0.3180
     31 H6         44.9201   -2.2217   24.2041 H         1 696         0.3180
     32 H7         44.7222   -3.7557   23.3149 H         1 696         0.3180
     33 H8         44.3988   -0.0349   30.2704 H         1 696         0.2230
     34 H9         43.3301   -4.0942   30.5267 H         1 696         0.0294
     35 H10        43.3628   -3.9542   32.3892 H         1 696         0.0593
     36 H11        42.8605   -3.7774   34.7819 H         1 696         0.0530
     37 H12        42.7799   -1.5768   35.8647 H         1 696         0.0593
     38 H13        43.9550    0.3093   31.0524 H         1 696         0.2521
     39 H14        45.0555    1.4933   33.9837 H         1 696         0.0606
     40 H15        44.9380    3.6640   35.1123 H         1 696         0.0613
     41 H16        42.9848    4.2487   36.5040 H         1 696         0.0603
     42 H17        41.1211    2.6203   36.7463 H         1 696         0.0613
     43 H18        41.2381    0.4341   35.6017 H         1 696         0.0606
@<TRIPOS>BOND
     1    1    2 ar 
     2    1    6 ar 
     3    1    7 1  
     4    2    3 ar 
     5    2   26 1  
     6    3    4 ar 
     7    3   27 1  
     8    4    5 ar 
     9    4   10 1  
    10    5    6 ar 
    11    5   11 1  
    12    6   28 1  
    13    7    8 ar 
    14    7    9 ar 
    15    8   29 1  
    16    8   30 1  
    17    9   31 1  
    18    9   32 1  
    19   10   12 1  
    20   10   33 1  
    21   11   12 2  
    22   12   13 1  
    23   13   14 ar 
    24   13   18 ar 
    25   14   15 ar 
    26   11   34 1  
    27   15   16 ar 
    28   14   35 1  
    29   16   17 ar 
    30   15   36 1  
    31   17   18 ar 
    32   17   20 1  
    33   18   19 1  
    34   20   21 ar 
    35   20   25 ar 
    36   21   22 ar 
    37   16   37 1  
    38   22   23 ar 
    39   19   38 1  
    40   23   24 ar 
    41   21   39 1  
    42   24   25 ar 
    43   22   40 1  
    44   23   41 1  
    45   24   42 1  
    46   25   43 1  
@<TRIPOS>SUBSTRUCTURE
     1 696         1

