### 
### Created by X-TOOL on Mon Sep 10 21:12:50 2018
### 

@<TRIPOS>MOLECULE
1o3f_ligand
   43    46     1     0     0
SMALL
GAST_HUCK


@<TRIPOS>ATOM
      1 C1         44.2570   -3.0900   26.6230 C.ar      1 696         0.0081
      2 C2         44.6160   -1.6990   26.6140 C.ar      1 696        -0.0716
      3 C3         44.5970   -0.9100   27.7630 C.ar      1 696        -0.0437
      4 C4         44.2190   -1.5220   28.9120 C.ar      1 696         0.0625
      5 C5         43.8760   -2.8110   28.9950 C.ar      1 696        -0.0269
      6 C6         43.8740   -3.6490   27.8750 C.ar      1 696        -0.0699
      7 C7         44.3090   -3.8330   25.4280 C.cat     1 696         0.2284
      8 N1         44.0290   -5.1160   25.4280 N.pl3     1 696        -0.2733
      9 N2         44.6390   -3.2350   24.3000 N.pl3     1 696        -0.2733
     10 N3         44.1380   -1.0270   30.0930 N.pl3     1 696        -0.2762
     11 CN4        43.5630   -3.1650   30.2360 C.2       1 696        -0.0577
     12 C8         43.7520   -2.0100   30.8460 C.2       1 696         0.0606
     13 C1'        43.4930   -1.8600   32.2100 C.ar      1 696         0.0381
     14 C2'        43.2460   -2.9610   33.0230 C.ar      1 696        -0.0591
     15 C3'        42.9840   -2.8260   34.3670 C.ar      1 696        -0.0712
     16 C4'        42.9590   -1.5750   34.9360 C.ar      1 696        -0.0615
     17 C5'        43.1980   -0.4060   34.1790 C.ar      1 696         0.0146
     18 C6'        43.4640   -0.5890   32.8210 C.ar      1 696         0.1121
     19 O6'        43.7270    0.5210   32.0460 O.3       1 696        -0.3267
     20 C1''       43.1380    0.8680   34.7920 C.ar      1 696        -0.0215
     21 C2''       44.1270    1.8280   34.6310 C.ar      1 696        -0.0570
     22 C3''       44.0730    3.0550   35.2570 C.ar      1 696        -0.0632
     23 C4''       43.0170    3.3770   36.0720 C.ar      1 696        -0.0635
     24 C5''       41.9940    2.4580   36.2690 C.ar      1 696        -0.0632
     25 C6''       42.0620    1.2220   35.6310 C.ar      1 696        -0.0570
     26 H1         44.9137   -1.2447   25.6759 H         1 696         0.0528
     27 H2         44.8704    0.1387   27.7390 H         1 696         0.0539
     28 H3         43.5896   -4.6918   27.9578 H         1 696         0.0531
     29 H4         44.0695   -5.6520   24.5494 H         1 696         0.3180
     30 H5         43.7689   -5.5864   26.3066 H         1 696         0.3180
     31 H6         44.8593   -2.2288   24.2958 H         1 696         0.3180
     32 H7         44.6764   -3.7741   23.4231 H         1 696         0.3180
     33 H8         44.3366   -0.0582   30.3809 H         1 696         0.2230
     34 H9         43.2437   -4.1271   30.6340 H         1 696         0.0294
     35 H10        43.2603   -3.9528   32.5858 H         1 696         0.0593
     36 H11        42.7978   -3.7037   34.9754 H         1 696         0.0530
     37 H12        42.7500   -1.4826   35.9956 H         1 696         0.0593
     38 H13        43.8886    0.2493   31.1502 H         1 696         0.2521
     39 H14        44.9723    1.6051   33.9900 H         1 696         0.0606
     40 H15        44.8717    3.7718   35.1041 H         1 696         0.0613
     41 H16        42.9812    4.3443   36.5600 H         1 696         0.0603
     42 H17        41.1543    2.6997   36.9106 H         1 696         0.0613
     43 H18        41.2607    0.5083   35.7847 H         1 696         0.0606
@<TRIPOS>BOND
     1    1    2 ar 
     2    1    6 ar 
     3    1    7 1  
     4    2    3 ar 
     5    3    4 ar 
     6    4    5 ar 
     7    4   10 1  
     8    5    6 ar 
     9    5   11 1  
    10    7    8 ar 
    11    7    9 ar 
    12   10   12 1  
    13   11   12 2  
    14   12   13 1  
    15   13   14 ar 
    16   13   18 ar 
    17   14   15 ar 
    18   15   16 ar 
    19   16   17 ar 
    20   17   18 ar 
    21   17   20 1  
    22   18   19 1  
    23   20   21 ar 
    24   20   25 ar 
    25   21   22 ar 
    26   22   23 ar 
    27   23   24 ar 
    28   24   25 ar 
    29    2   26 1  
    30    3   27 1  
    31    6   28 1  
    32    8   29 1  
    33    8   30 1  
    34    9   31 1  
    35    9   32 1  
    36   10   33 1  
    37   11   34 1  
    38   14   35 1  
    39   15   36 1  
    40   16   37 1  
    41   19   38 1  
    42   21   39 1  
    43   22   40 1  
    44   23   41 1  
    45   24   42 1  
    46   25   43 1  
@<TRIPOS>SUBSTRUCTURE
     1 696         1

