### 
### Created by X-TOOL on Mon Sep 10 21:12:49 2018
### 

@<TRIPOS>MOLECULE
1o3h_ligand
   36    38     1     0     0
SMALL
GAST_HUCK


@<TRIPOS>ATOM
      1 C1         43.9920   -3.0850   26.0230 C.ar      1 907         0.0082
      2 C2         44.3040   -1.7060   26.1130 C.ar      1 907        -0.0715
      3 C3         44.1810   -1.0010   27.3120 C.ar      1 907        -0.0436
      4 C4         43.7530   -1.6780   28.4200 C.ar      1 907         0.0625
      5 C5         43.4410   -2.9980   28.3750 C.ar      1 907        -0.0268
      6 C6         43.5400   -3.7500   27.1920 C.ar      1 907        -0.0699
      7 C7         44.1550   -3.7530   24.7840 C.cat     1 907         0.2284
      8 N1         43.8530   -5.0280   24.6700 N.pl3     1 907        -0.2733
      9 N2         44.6180   -3.0670   23.7560 N.pl3     1 907        -0.2733
     10 N3         43.5800   -1.2370   29.6300 N.pl3     1 907        -0.2763
     11 CN4        43.0550   -3.3590   29.6590 C.2       1 907        -0.0577
     12 C8         43.1700   -2.1950   30.4230 C.2       1 907         0.0595
     13 C1'        42.9440   -2.0180   31.8010 C.ar      1 907         0.0324
     14 C2'        42.5940   -3.1000   32.6100 C.ar      1 907        -0.0557
     15 C3'        42.3750   -2.9290   33.9790 C.ar      1 907        -0.0536
     16 C31'       41.9910   -4.1270   34.8490 C.3       1 907        -0.0356
     17 C4'        42.5070   -1.6770   34.5530 C.ar      1 907        -0.0591
     18 C5'        42.8540   -0.6020   33.7630 C.ar      1 907         0.0363
     19 C6'        43.0760   -0.7450   32.3950 C.ar      1 907         0.1046
     20 O6'        43.3980    0.3720   31.6390 O.3       1 907        -0.3316
     21 BR5'       43.0890    1.1080   34.6370 Br        1 907        -0.0597
     22 H1         44.6475   -1.1841   25.2272 H         1 907         0.0528
     23 H2         44.4186    0.0554   27.3630 H         1 907         0.0539
     24 H3         43.2799   -4.8022   27.1732 H         1 907         0.0531
     25 H4         43.9740   -5.5071   23.7663 H         1 907         0.3180
     26 H5         43.4955   -5.5474   25.4844 H         1 907         0.3180
     27 H6         44.8490   -2.0691   23.8648 H         1 907         0.3180
     28 H7         44.7484   -3.5295   22.8449 H         1 907         0.3180
     29 H8         43.7435   -0.2640   29.9258 H         1 907         0.2230
     30 H9         42.7311   -4.3417   29.9987 H         1 907         0.0296
     31 H10        42.4908   -4.0855   32.1705 H         1 907         0.0550
     32 H11        41.8618   -3.7974   35.8905 H         1 907         0.0370
     33 H12        42.7863   -4.8854   34.8005 H         1 907         0.0370
     34 H13        41.0487   -4.5598   34.4818 H         1 907         0.0370
     35 H14        42.3389   -1.5426   35.6154 H         1 907         0.0558
     36 H15        44.2015    0.7560   31.9697 H         1 907         0.2496
@<TRIPOS>BOND
     1    1    2 ar 
     2    1    6 ar 
     3    1    7 1  
     4    2    3 ar 
     5    3    4 ar 
     6    4    5 ar 
     7    4   10 1  
     8    5    6 ar 
     9    5   11 1  
    10    7    8 ar 
    11    7    9 ar 
    12   10   12 1  
    13   11   12 2  
    14   12   13 1  
    15   13   14 ar 
    16   13   19 ar 
    17   14   15 ar 
    18   15   16 1  
    19   15   17 ar 
    20   17   18 ar 
    21   18   19 ar 
    22   18   21 1  
    23   19   20 1  
    24    2   22 1  
    25    3   23 1  
    26    6   24 1  
    27    8   25 1  
    28    8   26 1  
    29    9   27 1  
    30    9   28 1  
    31   10   29 1  
    32   11   30 1  
    33   14   31 1  
    34   16   32 1  
    35   16   33 1  
    36   16   34 1  
    37   17   35 1  
    38   20   36 1  
@<TRIPOS>SUBSTRUCTURE
     1 907         1

