### 
### Created by X-TOOL on Mon Sep 10 21:12:50 2018
### 

@<TRIPOS>MOLECULE
1o3i_ligand
   36    38     1     0     0
SMALL
GAST_HUCK


@<TRIPOS>ATOM
      1 C1         44.2440   -3.0370   25.8830 C.ar      1 907         0.0082
      2 C2         44.6460   -1.6870   26.0030 C.ar      1 907        -0.0715
      3 C3         44.5720   -1.0070   27.2140 C.ar      1 907        -0.0436
      4 C4         44.1010   -1.6690   28.3180 C.ar      1 907         0.0625
      5 C5         43.6970   -2.9570   28.2460 C.ar      1 907        -0.0268
      6 C6         43.7470   -3.6920   27.0540 C.ar      1 907        -0.0699
      7 C7         44.3520   -3.6950   24.6090 C.cat     1 907         0.2284
      8 N1         43.9890   -4.9600   24.4500 N.pl3     1 907        -0.2733
      9 N2         44.8280   -2.9980   23.5970 N.pl3     1 907        -0.2733
     10 N3         43.9570   -1.2390   29.5440 N.pl3     1 907        -0.2763
     11 CN4        43.2920   -3.3100   29.5090 C.2       1 907        -0.0577
     12 C8         43.4810   -2.1820   30.3070 C.2       1 907         0.0595
     13 C1'        43.2640   -2.0470   31.7000 C.ar      1 907         0.0324
     14 C2'        42.9160   -3.1610   32.4830 C.ar      1 907        -0.0557
     15 C3'        42.7070   -3.0250   33.8780 C.ar      1 907        -0.0536
     16 C31'       42.3430   -4.1930   34.7610 C.3       1 907        -0.0356
     17 C4'        42.8370   -1.8170   34.4930 C.ar      1 907        -0.0591
     18 C5'        43.1740   -0.7480   33.7360 C.ar      1 907         0.0363
     19 C6'        43.3930   -0.8150   32.3460 C.ar      1 907         0.1046
     20 O6'        43.7220    0.3330   31.6420 O.3       1 907        -0.3316
     21 BR5'       43.3620    0.8820   34.7170 Br        1 907        -0.0597
     22 H1         45.0217   -1.1683   25.1284 H         1 907         0.0528
     23 H2         44.8817    0.0295   27.2836 H         1 907         0.0539
     24 H3         43.4193   -4.7247   27.0201 H         1 907         0.0531
     25 H4         44.0762   -5.4087   23.5270 H         1 907         0.3180
     26 H5         43.6198   -5.4942   25.2495 H         1 907         0.3180
     27 H6         45.1065   -2.0158   23.7338 H         1 907         0.3180
     28 H7         44.9216   -3.4354   22.6692 H         1 907         0.3180
     29 H8         44.1877   -0.2871   29.8626 H         1 907         0.2230
     30 H9         42.9016   -4.2764   29.8245 H         1 907         0.0296
     31 H10        42.8065   -4.1329   32.0157 H         1 907         0.0550
     32 H11        42.2326   -3.8472   35.7994 H         1 907         0.0370
     33 H12        43.1369   -4.9527   34.7100 H         1 907         0.0370
     34 H13        41.3941   -4.6306   34.4175 H         1 907         0.0370
     35 H14        42.6749   -1.7150   35.5599 H         1 907         0.0558
     36 H15        43.0246    0.9713   31.7355 H         1 907         0.2496
@<TRIPOS>BOND
     1    1    2 ar 
     2    1    6 ar 
     3    1    7 1  
     4    2    3 ar 
     5    3    4 ar 
     6    4    5 ar 
     7    4   10 1  
     8    5    6 ar 
     9    5   11 1  
    10    7    8 ar 
    11    7    9 ar 
    12   10   12 1  
    13   11   12 2  
    14   12   13 1  
    15   13   14 ar 
    16   13   19 ar 
    17   14   15 ar 
    18   15   16 1  
    19   15   17 ar 
    20   17   18 ar 
    21   18   19 ar 
    22   18   21 1  
    23   19   20 1  
    24    2   22 1  
    25    3   23 1  
    26    6   24 1  
    27    8   25 1  
    28    8   26 1  
    29    9   27 1  
    30    9   28 1  
    31   10   29 1  
    32   11   30 1  
    33   14   31 1  
    34   16   32 1  
    35   16   33 1  
    36   16   34 1  
    37   17   35 1  
    38   20   36 1  
@<TRIPOS>SUBSTRUCTURE
     1 907         1

