### 
### Created by X-TOOL on Mon Sep 10 21:12:50 2018
### 

@<TRIPOS>MOLECULE
1o3j_ligand
   35    37     1     0     0
SMALL
GAST_HUCK


@<TRIPOS>ATOM
      1 C1         44.1980   -3.0840   26.0990 C.ar      1 334         0.0108
      2 C2         44.6300   -1.7460   26.1740 C.ar      1 334        -0.0697
      3 C3         44.5890   -1.0420   27.3690 C.ar      1 334        -0.0400
      4 C4         44.1150   -1.6840   28.4810 C.ar      1 334         0.0805
      5 C5         43.6790   -2.9550   28.4740 C.ar      1 334         0.0295
      6 C6         43.7050   -3.7020   27.2840 C.ar      1 334        -0.0569
      7 C7         44.2690   -3.7640   24.8580 C.cat     1 334         0.2290
      8 N1         43.8920   -5.0210   24.7680 N.pl3     1 334        -0.2732
      9 N2         44.7160   -3.1280   23.7960 N.pl3     1 334        -0.2732
     10 N3         43.9770   -1.2760   29.6820 N.pl3     1 334        -0.2512
     11 N4         43.2690   -3.3480   29.6670 N.2       1 334        -0.3105
     12 C8         43.4790   -2.2480   30.3870 C.2       1 334         0.1354
     13 C1'        43.2550   -2.0950   31.7790 C.ar      1 334         0.0614
     14 C2'        42.9140   -3.1900   32.5880 C.ar      1 334        -0.0475
     15 C3'        42.6990   -3.0160   33.9660 C.ar      1 334        -0.0486
     16 C31'       42.3240   -4.1950   34.8770 C.3       1 334        -0.0346
     17 C4'        42.8260   -1.7580   34.5460 C.ar      1 334        -0.0546
     18 C5'        43.1690   -0.6520   33.7620 C.ar      1 334         0.0412
     19 C6'        43.3760   -0.8220   32.3860 C.ar      1 334         0.1128
     20 O6'        43.6720    0.2990   31.6290 O.3       1 334        -0.3285
     21 BR5'       43.4270    1.1160   34.5720 Br        1 334        -0.0583
     22 H1         45.0017   -1.2565   25.2811 H         1 334         0.0541
     23 H2         44.9231   -0.0121   27.4205 H         1 334         0.0544
     24 H3         43.3567   -4.7284   27.2681 H         1 334         0.0548
     25 H4         43.9454   -5.5112   23.8637 H         1 334         0.3180
     26 H5         43.5434   -5.5151   25.6018 H         1 334         0.3180
     27 H6         45.0101   -2.1437   23.8710 H         1 334         0.3180
     28 H7         44.7717   -3.6145   22.8898 H         1 334         0.3180
     29 H8         44.2186   -0.3381   30.0325 H         1 334         0.2296
     30 H9         42.8159   -4.1756   32.1475 H         1 334         0.0594
     31 H10        42.2039   -3.8364   35.9100 H         1 334         0.0371
     32 H11        43.1204   -4.9530   34.8423 H         1 334         0.0371
     33 H12        41.3792   -4.6397   34.5311 H         1 334         0.0371
     34 H13        42.6584   -1.6346   35.6098 H         1 334         0.0595
     35 H14        44.4724    0.6957   31.9522 H         1 334         0.2512
@<TRIPOS>BOND
     1    1    2 ar 
     2    1    6 ar 
     3    1    7 1  
     4    2    3 ar 
     5    3    4 ar 
     6    4    5 ar 
     7    4   10 1  
     8    5    6 ar 
     9    5   11 1  
    10    7    8 ar 
    11    7    9 ar 
    12   10   12 1  
    13   11   12 2  
    14   12   13 1  
    15   13   14 ar 
    16   13   19 ar 
    17   14   15 ar 
    18   15   16 1  
    19   15   17 ar 
    20   17   18 ar 
    21   18   19 ar 
    22   18   21 1  
    23   19   20 1  
    24    2   22 1  
    25    3   23 1  
    26    6   24 1  
    27    8   25 1  
    28    8   26 1  
    29    9   27 1  
    30    9   28 1  
    31   10   29 1  
    32   14   30 1  
    33   16   31 1  
    34   16   32 1  
    35   16   33 1  
    36   17   34 1  
    37   20   35 1  
@<TRIPOS>SUBSTRUCTURE
     1 334         1

