### 
### Created by X-TOOL on Mon Sep 10 21:12:49 2018
### 

@<TRIPOS>MOLECULE
1o3k_ligand
   35    37     1     0     0
SMALL
GAST_HUCK


@<TRIPOS>ATOM
      1 C1         43.9150   -3.0920   26.1460 C.ar      1 334         0.0108
      2 C2         44.2420   -1.7110   26.2460 C.ar      1 334        -0.0697
      3 C3         44.1100   -1.0170   27.4450 C.ar      1 334        -0.0400
      4 C4         43.6600   -1.7010   28.5350 C.ar      1 334         0.0805
      5 C5         43.3340   -3.0220   28.4660 C.ar      1 334         0.0295
      6 C6         43.4450   -3.7550   27.2920 C.ar      1 334        -0.0569
      7 C7         44.0690   -3.7710   24.9270 C.cat     1 334         0.2290
      8 N1         43.8060   -5.0600   24.8600 N.pl3     1 334        -0.2732
      9 N2         44.4790   -3.0860   23.8770 N.pl3     1 334        -0.2732
     10 N3         43.4580   -1.2820   29.7430 N.pl3     1 334        -0.2512
     11 N4         42.9180   -3.4080   29.7040 N.2       1 334        -0.3105
     12 C8         43.0100   -2.2650   30.4850 C.2       1 334         0.1354
     13 C1'        42.7980   -2.1530   31.8580 C.ar      1 334         0.0614
     14 C2'        42.5490   -3.2970   32.6470 C.ar      1 334        -0.0475
     15 C3'        42.3350   -3.1720   34.0260 C.ar      1 334        -0.0486
     16 C31'       42.0340   -4.3620   34.9380 C.3       1 334        -0.0346
     17 C4'        42.3730   -1.9330   34.6090 C.ar      1 334        -0.0546
     18 C5'        42.6160   -0.8230   33.8360 C.ar      1 334         0.0412
     19 C6'        42.8320   -0.8830   32.4640 C.ar      1 334         0.1128
     20 O6'        43.0550    0.2890   31.7380 O.3       1 334        -0.3285
     21 BR5'       42.6340    0.8430   34.7960 Br        1 334        -0.0583
     22 H1         44.6023   -1.1873   25.3680 H         1 334         0.0541
     23 H2         44.3577    0.0363   27.5103 H         1 334         0.0544
     24 H3         43.1776   -4.8050   27.2607 H         1 334         0.0548
     25 H4         43.9175   -5.5627   23.9679 H         1 334         0.3180
     26 H5         43.4889   -5.5652   25.6997 H         1 334         0.3180
     27 H6         44.6759   -2.0787   23.9640 H         1 334         0.3180
     28 H7         44.6023   -3.5584   22.9700 H         1 334         0.3180
     29 H8         43.6244   -0.3202   30.0718 H         1 334         0.2296
     30 H9         42.5233   -4.2767   32.1837 H         1 334         0.0594
     31 H10        41.9061   -4.0085   35.9718 H         1 334         0.0371
     32 H11        42.8689   -5.0769   34.8956 H         1 334         0.0371
     33 H12        41.1104   -4.8565   34.6027 H         1 334         0.0371
     34 H13        42.2120   -1.8285   35.6759 H         1 334         0.0595
     35 H14        43.8295    0.7253   32.0732 H         1 334         0.2512
@<TRIPOS>BOND
     1    1    2 ar 
     2    1    6 ar 
     3    1    7 1  
     4    2    3 ar 
     5    3    4 ar 
     6    4    5 ar 
     7    4   10 1  
     8    5    6 ar 
     9    5   11 1  
    10    7    8 ar 
    11    7    9 ar 
    12   10   12 1  
    13   11   12 2  
    14   12   13 1  
    15   13   14 ar 
    16   13   19 ar 
    17   14   15 ar 
    18   15   16 1  
    19   15   17 ar 
    20   17   18 ar 
    21   18   19 ar 
    22   18   21 1  
    23   19   20 1  
    24    2   22 1  
    25    3   23 1  
    26    6   24 1  
    27    8   25 1  
    28    8   26 1  
    29    9   27 1  
    30    9   28 1  
    31   10   29 1  
    32   14   30 1  
    33   16   31 1  
    34   16   32 1  
    35   16   33 1  
    36   17   34 1  
    37   20   35 1  
@<TRIPOS>SUBSTRUCTURE
     1 334         1

