### 
### Created by X-TOOL on Mon Sep 10 21:12:50 2018
### 

@<TRIPOS>MOLECULE
1o3l_ligand
   38    40     1     0     0
SMALL
GAST_HUCK


@<TRIPOS>ATOM
      1 C1         43.9660   -2.9640   26.0870 C.ar      1 678         0.0082
      2 C2         44.2610   -1.5780   26.1950 C.ar      1 678        -0.0715
      3 C3         44.1330   -0.8650   27.3850 C.ar      1 678        -0.0436
      4 C4         43.7140   -1.5620   28.4750 C.ar      1 678         0.0625
      5 C5         43.4090   -2.8710   28.4590 C.ar      1 678        -0.0268
      6 C6         43.5240   -3.6050   27.2790 C.ar      1 678        -0.0699
      7 C7         44.1170   -3.6620   24.8510 C.cat     1 678         0.2284
      8 N1         43.8230   -4.9430   24.7440 N.pl3     1 678        -0.2733
      9 N2         44.5530   -3.0480   23.7710 N.pl3     1 678        -0.2733
     10 N3         43.5030   -1.1210   29.7020 N.pl3     1 678        -0.2763
     11 CN4        43.0240   -3.1900   29.7020 C.2       1 678        -0.0577
     12 C8         43.0730   -2.0810   30.5250 C.2       1 678         0.0595
     13 C1'        42.9180   -1.9290   31.9390 C.ar      1 678         0.0327
     14 C2'        42.6480   -3.0430   32.7920 C.ar      1 678        -0.0537
     15 C3'        42.4840   -2.9410   34.1950 C.ar      1 678        -0.0377
     16 C31'       42.1740   -4.2470   34.9990 C.3       1 678         0.0292
     17 C32'       42.0880   -4.0950   36.5220 C.2       1 678         0.0447
     18 O33'       41.0700   -3.6060   36.9600 O.co2     1 678        -0.5667
     19 O34'       43.0300   -4.4660   37.1970 O.co2     1 678        -0.5667
     20 C4'        42.6000   -1.6820   34.7680 C.ar      1 678        -0.0572
     21 C5'        42.8580   -0.6130   33.9450 C.ar      1 678         0.0365
     22 C6'        43.0150   -0.7100   32.5740 C.ar      1 678         0.1048
     23 O6'        43.2450    0.4340   31.8500 O.3       1 678        -0.3315
     24 BR5'       43.0180    1.1490   34.7080 Br        1 678        -0.0596
     25 H1         44.6013   -1.0514   25.3107 H         1 678         0.0528
     26 H2         44.3566    0.1943   27.4395 H         1 678         0.0539
     27 H3         43.2776   -4.6606   27.2693 H         1 678         0.0531
     28 H4         43.9404   -5.4247   23.8412 H         1 678         0.3180
     29 H5         43.4760   -5.4619   25.5633 H         1 678         0.3180
     30 H6         44.7944   -2.0474   23.8095 H         1 678         0.3180
     31 H7         44.6527   -3.5682   22.8876 H         1 678         0.3180
     32 H8         43.6535   -0.1443   29.9922 H         1 678         0.2230
     33 H9         42.7154   -4.1849   30.0196 H         1 678         0.0296
     34 H10        42.5637   -4.0240   32.3386 H         1 678         0.0553
     35 H11        42.9687   -4.9748   34.7780 H         1 678         0.0568
     36 H12        41.2090   -4.6389   34.6451 H         1 678         0.0568
     37 H13        42.4898   -1.5459   35.8378 H         1 678         0.0561
     38 H14        44.0456    0.8446   32.1546 H         1 678         0.2497
@<TRIPOS>BOND
     1    1    2 ar 
     2    1    6 ar 
     3    1    7 1  
     4    2    3 ar 
     5    3    4 ar 
     6    4    5 ar 
     7    4   10 1  
     8    5    6 ar 
     9    5   11 1  
    10    7    8 ar 
    11    7    9 ar 
    12   10   12 1  
    13   11   12 2  
    14   12   13 1  
    15   13   14 ar 
    16   13   22 ar 
    17   14   15 ar 
    18   15   16 1  
    19   15   20 ar 
    20   16   17 1  
    21   17   18 ar 
    22   17   19 ar 
    23   20   21 ar 
    24   21   22 ar 
    25   21   24 1  
    26   22   23 1  
    27    2   25 1  
    28    3   26 1  
    29    6   27 1  
    30    8   28 1  
    31    8   29 1  
    32    9   30 1  
    33    9   31 1  
    34   10   32 1  
    35   11   33 1  
    36   14   34 1  
    37   16   35 1  
    38   16   36 1  
    39   20   37 1  
    40   23   38 1  
@<TRIPOS>SUBSTRUCTURE
     1 678         1

