### 
### Created by X-TOOL on Fri Sep 26 17:34:22 2014
### 

@<TRIPOS>MOLECULE
1o3p_ligand
   46    49     1     0     0
SMALL
GAST_HUCK


@<TRIPOS>ATOM
      1 C1          8.7880    1.4610   24.6060 C.ar      1 MOL         0.0108
      2 C2          9.5720    1.3020   23.4300 C.ar      1 MOL        -0.0697
      3 C3         10.2020    2.3670   22.8100 C.ar      1 MOL        -0.0401
      4 C4          9.9720    3.6110   23.3310 C.ar      1 MOL         0.0805
      5 C5          9.2090    3.8120   24.4350 C.ar      1 MOL         0.0293
      6 C6          8.5920    2.7660   25.0710 C.ar      1 MOL        -0.0569
      7 C7          8.1880    0.3730   25.2350 C.cat     1 MOL         0.2290
      8 N1          7.7520    0.4860   26.4730 N.pl3     1 MOL        -0.2732
      9 N2          8.0910   -0.7720   24.6100 N.pl3     1 MOL        -0.2732
     10 N3         10.3730    4.7820   22.9850 N.pl3     1 MOL        -0.2513
     11 N4          9.1170    5.0700   24.7840 N.2       1 MOL        -0.3109
     12 C8          9.8770    5.6220   23.8530 C.2       1 MOL         0.1334
     13 C1'        10.1130    6.9650   23.7750 C.ar      1 MOL         0.0569
     14 C2'         9.7870    7.8200   24.8490 C.ar      1 MOL        -0.0627
     15 C3'        10.0400    9.1930   24.7850 C.ar      1 MOL        -0.0761
     16 C4'        10.6290    9.7250   23.6570 C.ar      1 MOL        -0.0367
     17 C5'        10.9610    8.8870   22.5700 C.ar      1 MOL         0.1266
     18 O5'        11.5570    9.3300   21.3960 O.3       1 MOL        -0.3174
     19 C6'        10.7210    7.5300   22.6460 C.ar      1 MOL         0.1382
     20 O6'        11.1000    6.7680   21.5450 O.3       1 MOL        -0.3301
     21 C1''       11.8090   11.0280   19.7310 C.3       1 MOL        -0.0226
     22 C2''       11.8600   10.7160   21.2250 C.3       1 MOL         0.0788
     23 C3''       13.2910   10.8790   21.6920 C.3       1 MOL        -0.0226
     24 C4''       14.1130   11.3710   20.5140 C.3       1 MOL        -0.0503
     25 C5''       13.2440   11.2120   19.2770 C.3       1 MOL        -0.0503
     26 H1          9.6800    0.3111   23.0040 H         1 MOL         0.0541
     27 H2         10.8477    2.2222   21.9514 H         1 MOL         0.0544
     28 H3          7.9558    2.9489   25.9294 H         1 MOL         0.0547
     29 H4          7.3082   -0.3187   26.9382 H         1 MOL         0.3180
     30 H5          7.8549    1.3791   26.9757 H         1 MOL         0.3180
     31 H6          8.4317   -0.8609   23.6421 H         1 MOL         0.3180
     32 H7          7.6739   -1.5847   25.0858 H         1 MOL         0.3180
     33 H8         10.9705    5.0133   22.1785 H         1 MOL         0.2296
     34 H9          9.3317    7.4041   25.7405 H         1 MOL         0.0540
     35 H10         9.7750    9.8358   25.6167 H         1 MOL         0.0511
     36 H11        10.8373   10.7875   23.6048 H         1 MOL         0.0544
     37 H12        12.0353    6.8587   21.4054 H         1 MOL         0.2481
     38 H13        11.3422   10.1949   19.1852 H         1 MOL         0.0294
     39 H14        11.2343   11.9493   19.5552 H         1 MOL         0.0294
     40 H15        11.1698   11.3586   21.7913 H         1 MOL         0.0645
     41 H16        13.6820    9.9126   22.0429 H         1 MOL         0.0294
     42 H17        13.3357   11.6119   22.5110 H         1 MOL         0.0294
     43 H18        15.0288   10.7699   20.4135 H         1 MOL         0.0266
     44 H19        14.3819   12.4283   20.6548 H         1 MOL         0.0266
     45 H20        13.5694   10.3318   18.7031 H         1 MOL         0.0266
     46 H21        13.3236   12.1103   18.6472 H         1 MOL         0.0266
@<TRIPOS>BOND
     1    1    2 ar 
     2    1    6 ar 
     3    1    7 1  
     4    2    3 ar 
     5    3    4 ar 
     6    4    5 ar 
     7    4   10 1  
     8    5    6 ar 
     9    5   11 1  
    10    7    8 ar 
    11    7    9 ar 
    12   10   12 1  
    13   12   11 2  
    14   12   13 1  
    15   13   14 ar 
    16   13   19 ar 
    17   14   15 ar 
    18   15   16 ar 
    19   16   17 ar 
    20   17   18 1  
    21   17   19 ar 
    22   18   22 1  
    23   19   20 1  
    24   22   23 1  
    25   23   24 1  
    26   24   25 1  
    27   25   21 1  
    28   22   21 1  
    29    2   26 1  
    30    3   27 1  
    31    6   28 1  
    32    8   29 1  
    33    8   30 1  
    34    9   31 1  
    35    9   32 1  
    36   10   33 1  
    37   14   34 1  
    38   15   35 1  
    39   16   36 1  
    40   20   37 1  
    41   21   38 1  
    42   21   39 1  
    43   22   40 1  
    44   23   41 1  
    45   23   42 1  
    46   24   43 1  
    47   24   44 1  
    48   25   45 1  
    49   25   46 1  
@<TRIPOS>SUBSTRUCTURE
     1 MOL         1

