### 
### Created by X-TOOL on Mon Sep 10 21:12:51 2018
### 

@<TRIPOS>MOLECULE
1o43_ligand
   76    79     1     0     0
SMALL
GAST_HUCK


@<TRIPOS>ATOM
      1 C1         19.1090   24.6530   20.9790 C.2       1 821        -0.0392
      2 C2         19.8740   25.2290   21.9620 C.2       1 821         0.1459
      3 N3         20.1990   26.7220   22.1110 N.am      1 821        -0.2195
      4 C4         19.4530   27.4360   22.9610 C.2       1 821         0.2082
      5 C5         19.9140   28.8580   23.2910 C.3       1 821         0.0334
      6 O9         18.5050   26.9250   23.5440 O.2       1 821        -0.3809
      7 C10        20.4890   24.3210   23.0460 C.2       1 821         0.2389
      8 O11        21.5830   24.6800   23.5150 O.2       1 821        -0.3776
      9 N12        19.7980   23.2000   23.4840 N.am      1 821        -0.2618
     10 C14        20.3760   22.3380   24.4690 C.3       1 821         0.1308
     11 C15        19.2390   21.5160   25.0130 C.3       1 821        -0.0124
     12 C16        19.5400   20.7790   26.2910 C.3       1 821        -0.0470
     13 C19        20.6600   19.7320   26.1690 C.3       1 821        -0.0321
     14 C22        22.0260   20.3500   25.8960 C.3       1 821         0.0362
     15 C25        21.4710   21.5380   23.6900 C.2       1 821         0.2059
     16 N26        22.2770   20.6580   24.4650 N.am      1 821        -0.2598
     17 O29        21.5960   21.6650   22.4530 O.2       1 821        -0.3942
     18 C30        23.3410   19.7770   23.8190 C.3       1 821         0.0680
     19 C31        22.7890   18.4190   23.5060 C.ar      1 821        -0.0198
     20 C34        23.2840   17.2040   24.0410 C.ar      1 821        -0.0570
     21 C35        22.5730   15.9950   23.7510 C.ar      1 821        -0.0600
     22 C36        21.3920   15.9760   22.9450 C.ar      1 821        -0.0242
     23 C37        20.8810   17.1850   22.4660 C.ar      1 821        -0.0600
     24 C38        21.5890   18.3930   22.7280 C.ar      1 821        -0.0570
     25 C43        20.7010   14.7030   22.5220 C.ar      1 821        -0.0221
     26 C44        21.4360   13.4520   22.4650 C.ar      1 821        -0.0557
     27 C45        20.6970   12.2360   22.2560 C.ar      1 821        -0.0622
     28 C46        19.3090   12.2720   22.1050 C.ar      1 821        -0.0627
     29 C47        18.6080   13.5090   22.0310 C.ar      1 821        -0.0622
     30 C48        19.2910   14.7110   22.2370 C.ar      1 821        -0.0557
     31 C56        18.5120   25.4440   19.8810 C.ar      1 821        -0.0596
     32 C57        19.0000   26.7460   19.5200 C.ar      1 821        -0.0778
     33 C58        18.4380   27.4950   18.4290 C.ar      1 821        -0.0709
     34 C59        17.3560   26.9210   17.6610 C.ar      1 821        -0.0315
     35 C60        16.8850   25.5810   18.0050 C.ar      1 821        -0.0206
     36 C61        17.4500   24.9080   19.1150 C.ar      1 821        -0.0679
     37 C65        16.7060   27.8460   16.6030 C.3       1 821         0.0287
     38 C66        15.4030   28.5600   17.2650 C.2       1 821         0.0444
     39 O69        14.5650   29.0270   16.5490 O.co2     1 821        -0.5667
     40 O70        15.2240   28.5860   18.6430 O.co2     1 821        -0.5667
     41 C71        16.0550   24.7150   17.1880 C.3       1 821         0.0746
     42 O72        16.6150   24.2000   16.0840 O.3       1 821        -0.3838
     43 H1         18.9358   23.5783   21.0083 H         1 821         0.0352
     44 H2         20.9413   27.1452   21.5915 H         1 821         0.2364
     45 H3         19.2070   29.3180   23.9971 H         1 821         0.0474
     46 H4         19.9509   29.4550   22.3679 H         1 821         0.0474
     47 H5         20.9152   28.8228   23.7452 H         1 821         0.0474
     48 H6         18.8936   22.9941   23.1102 H         1 821         0.1877
     49 H7         20.8419   22.9072   25.2868 H         1 821         0.0799
     50 H8         18.9582   20.7750   24.2500 H         1 821         0.0312
     51 H9         18.3898   22.1898   25.1998 H         1 821         0.0312
     52 H10        18.6231   20.2662   26.6171 H         1 821         0.0268
     53 H11        19.8384   21.5156   27.0514 H         1 821         0.0268
     54 H12        20.4129   19.0491   25.3429 H         1 821         0.0285
     55 H13        20.7137   19.1649   27.1100 H         1 821         0.0285
     56 H14        22.7985   19.6457   26.2384 H         1 821         0.0524
     57 H15        22.1027   21.2856   26.4693 H         1 821         0.0524
     58 H16        24.1898   19.6707   24.5105 H         1 821         0.0689
     59 H17        23.6842   20.2503   22.8872 H         1 821         0.0689
     60 H18        24.1779   17.1898   24.6541 H         1 821         0.0561
     61 H19        22.9435   15.0607   24.1571 H         1 821         0.0609
     62 H20        19.9559   17.2035   21.9012 H         1 821         0.0609
     63 H21        21.2057   19.3232   22.3245 H         1 821         0.0561
     64 H22        22.5141   13.4350   22.5771 H         1 821         0.0615
     65 H23        21.2197   11.2872   22.2155 H         1 821         0.0615
     66 H24        18.7558   11.3419   22.0431 H         1 821         0.0610
     67 H25        17.5457   13.5186   21.8151 H         1 821         0.0615
     68 H26        18.7564   15.6524   22.1818 H         1 821         0.0615
     69 H27        19.8169   27.1769   20.0875 H         1 821         0.0488
     70 H28        18.8213   28.4792   18.1850 H         1 821         0.0528
     71 H29        17.0510   23.9384   19.3904 H         1 821         0.0475
     72 H30        16.3988   27.2514   15.7301 H         1 821         0.0565
     73 H31        17.4285   28.6133   16.2881 H         1 821         0.0565
     74 H32        15.1764   25.2974   16.8736 H         1 821         0.0705
     75 H33        15.7310   23.8742   17.8189 H         1 821         0.0705
     76 H34        15.9811   23.6541   15.6339 H         1 821         0.2124
@<TRIPOS>BOND
     1    1    2 2  
     2    1   31 1  
     3    2    3 1  
     4    2    7 1  
     5    3    4 am 
     6    4    5 1  
     7    4    6 2  
     8    7    8 2  
     9    7    9 am 
    10    9   10 1  
    11   10   11 1  
    12   10   15 1  
    13   11   12 1  
    14   12   13 1  
    15   13   14 1  
    16   14   16 1  
    17   15   16 am 
    18   15   17 2  
    19   16   18 1  
    20   18   19 1  
    21   19   20 ar 
    22   19   24 ar 
    23   20   21 ar 
    24   21   22 ar 
    25   22   23 ar 
    26   22   25 1  
    27   23   24 ar 
    28   25   26 ar 
    29   25   30 ar 
    30   26   27 ar 
    31   27   28 ar 
    32   28   29 ar 
    33   29   30 ar 
    34   31   32 ar 
    35   31   36 ar 
    36   32   33 ar 
    37   33   34 ar 
    38   34   35 ar 
    39   34   37 1  
    40   35   36 ar 
    41   35   41 1  
    42   37   38 1  
    43   38   39 ar 
    44   38   40 ar 
    45   41   42 1  
    46    1   43 1  
    47    3   44 1  
    48    5   45 1  
    49    5   46 1  
    50    5   47 1  
    51    9   48 1  
    52   10   49 1  
    53   11   50 1  
    54   11   51 1  
    55   12   52 1  
    56   12   53 1  
    57   13   54 1  
    58   13   55 1  
    59   14   56 1  
    60   14   57 1  
    61   18   58 1  
    62   18   59 1  
    63   20   60 1  
    64   21   61 1  
    65   23   62 1  
    66   24   63 1  
    67   26   64 1  
    68   27   65 1  
    69   28   66 1  
    70   29   67 1  
    71   30   68 1  
    72   32   69 1  
    73   33   70 1  
    74   36   71 1  
    75   37   72 1  
    76   37   73 1  
    77   41   74 1  
    78   41   75 1  
    79   42   76 1  
@<TRIPOS>SUBSTRUCTURE
     1 821         1

