### 
### Created by X-TOOL on Mon Sep 10 21:12:51 2018
### 

@<TRIPOS>MOLECULE
1o44_ligand
   78    81     1     0     0
SMALL
GAST_HUCK


@<TRIPOS>ATOM
      1 C1         19.2380   25.6410   20.0780 C.ar      1 852        -0.0414
      2 C2         17.8930   25.3380   19.7920 C.ar      1 852        -0.0634
      3 C3         17.1740   26.1970   18.9590 C.ar      1 852        -0.0593
      4 C4         17.7800   27.3790   18.5010 C.ar      1 852        -0.0065
      5 C5         19.1470   27.7350   18.8420 C.ar      1 852         0.0088
      6 C6         19.9080   26.8100   19.5980 C.ar      1 852        -0.0519
      7 C7         20.0130   24.7630   21.0070 C.3       1 852         0.0190
      8 C8         19.6820   25.2310   22.4180 C.3       1 852         0.1396
      9 C9         20.4390   24.3170   23.3950 C.2       1 852         0.2058
     10 N10        19.6870   23.2400   23.7510 N.am      1 852        -0.2636
     11 O11        21.6050   24.5510   23.7760 O.2       1 852        -0.3942
     12 N12        20.1280   26.6030   22.6040 N.am      1 852        -0.2642
     13 C13        19.3270   27.5010   23.1640 C.2       1 852         0.1752
     14 O14        18.2310   27.2440   23.6430 O.2       1 852        -0.3972
     15 C15        19.8660   28.9370   23.0530 C.3       1 852         0.0258
     16 C16        20.2770   22.2460   24.6060 C.3       1 852         0.1312
     17 C17        21.3420   21.4860   23.7860 C.2       1 852         0.2060
     18 N18        22.1520   20.6670   24.5570 N.am      1 852        -0.2598
     19 O19        21.4010   21.6200   22.5460 O.2       1 852        -0.3942
     20 C20        21.9980   20.4790   26.0080 C.3       1 852         0.0362
     21 C21        20.7350   19.6590   26.1950 C.3       1 852        -0.0321
     22 C22        23.1310   19.8210   23.7850 C.3       1 852         0.0680
     23 C23        22.5260   18.4860   23.3530 C.ar      1 852        -0.0198
     24 C24        19.5230   20.5420   26.3410 C.3       1 852        -0.0470
     25 C25        19.1810   21.2930   25.0630 C.3       1 852        -0.0123
     26 C26        21.3440   18.4320   22.5190 C.ar      1 852        -0.0570
     27 C27        20.7050   17.1900   22.2620 C.ar      1 852        -0.0600
     28 C28        21.3100   16.0440   22.8510 C.ar      1 852        -0.0242
     29 C29        22.4750   16.0610   23.6400 C.ar      1 852        -0.0600
     30 C30        23.0840   17.2980   23.9020 C.ar      1 852        -0.0570
     31 C31        20.6490   14.7260   22.6150 C.ar      1 852        -0.0221
     32 C32        21.4560   13.5420   22.4670 C.ar      1 852        -0.0557
     33 C33        20.7990   12.3110   22.1360 C.ar      1 852        -0.0622
     34 C34        19.4130   12.2830   21.9750 C.ar      1 852        -0.0627
     35 C35        18.6160   13.4230   22.1370 C.ar      1 852        -0.0622
     36 C36        19.2250   14.6580   22.4800 C.ar      1 852        -0.0557
     37 C37        19.8350   29.0420   18.4520 C.2       1 852         0.0575
     38 O38        19.5340   30.2120   19.1050 O.co2     1 852        -0.5629
     39 O39        20.6260   29.0430   17.5730 O.co2     1 852        -0.5629
     40 C40        16.9050   28.2340   17.6280 C.3       1 852         0.0962
     41 C41        17.2300   28.4950   16.1580 C.2       1 852         0.0622
     42 O42        17.3650   27.3560   15.5190 O.co2     1 852        -0.5643
     43 O43        17.4200   29.5550   15.6680 O.co2     1 852        -0.5643
     44 C76        15.4710   28.5710   17.9940 C.2       1 852         0.0622
     45 O78        14.7690   28.7320   17.0670 O.co2     1 852        -0.5643
     46 O79        15.1960   28.8440   19.2450 O.co2     1 852        -0.5643
     47 H1         17.4248   24.4545   20.2107 H         1 852         0.0563
     48 H2         16.1582   25.9545   18.6684 H         1 852         0.0552
     49 H3         20.9582   26.9815   19.8049 H         1 852         0.0573
     50 H4         21.0914   24.8649   20.8157 H         1 852         0.0461
     51 H5         19.7148   23.7125   20.8750 H         1 852         0.0461
     52 H6         18.5983   25.1645   22.5948 H         1 852         0.0822
     53 H7         18.7465   23.1423   23.4257 H         1 852         0.1883
     54 H8         21.0446   26.8715   22.3078 H         1 852         0.1884
     55 H9         19.1610   29.6314   23.5334 H         1 852         0.0467
     56 H10        19.9794   29.2052   21.9922 H         1 852         0.0467
     57 H11        20.8431   29.0017   23.5540 H         1 852         0.0467
     58 H12        20.7456   22.7226   25.4796 H         1 852         0.0800
     59 H13        21.8989   21.4524   26.5106 H         1 852         0.0524
     60 H14        22.8660   19.9416   26.4175 H         1 852         0.0524
     61 H15        20.8394   19.0421   27.0997 H         1 852         0.0285
     62 H16        20.5991   19.0065   25.3199 H         1 852         0.0285
     63 H17        24.0068   19.6237   24.4206 H         1 852         0.0689
     64 H18        23.4462   20.3738   22.8877 H         1 852         0.0689
     65 H19        19.7166   21.2751   27.1379 H         1 852         0.0268
     66 H20        18.6634   19.9151   26.6205 H         1 852         0.0268
     67 H21        19.0036   20.5578   24.2642 H         1 852         0.0312
     68 H22        18.2637   21.8749   25.2362 H         1 852         0.0312
     69 H23        20.9449   19.3435   22.0888 H         1 852         0.0561
     70 H24        19.8104   17.1190   21.6539 H         1 852         0.0609
     71 H25        22.8916   15.1417   24.0355 H         1 852         0.0609
     72 H26        23.9740   17.3480   24.5188 H         1 852         0.0561
     73 H27        22.5309   13.5805   22.6022 H         1 852         0.0615
     74 H28        21.3783   11.4033   22.0110 H         1 852         0.0615
     75 H29        18.9361   11.3448   21.7151 H         1 852         0.0610
     76 H30        17.5422   13.3625   22.0014 H         1 852         0.0615
     77 H31        18.6178   15.5419   22.6384 H         1 852         0.0615
     78 H32        17.3321   29.1771   17.9997 H         1 852         0.0781
@<TRIPOS>BOND
     1    1    2 ar 
     2    1    6 ar 
     3    1    7 1  
     4    2    3 ar 
     5    3    4 ar 
     6    4    5 ar 
     7    4   40 1  
     8    5    6 ar 
     9    5   37 1  
    10    7    8 1  
    11    8    9 1  
    12    8   12 1  
    13    9   10 am 
    14    9   11 2  
    15   10   16 1  
    16   12   13 am 
    17   13   14 2  
    18   13   15 1  
    19   16   17 1  
    20   16   25 1  
    21   17   18 am 
    22   17   19 2  
    23   18   20 1  
    24   18   22 1  
    25   20   21 1  
    26   21   24 1  
    27   22   23 1  
    28   23   26 ar 
    29   23   30 ar 
    30   24   25 1  
    31   26   27 ar 
    32   27   28 ar 
    33   28   29 ar 
    34   28   31 1  
    35   29   30 ar 
    36   31   32 ar 
    37   31   36 ar 
    38   32   33 ar 
    39   33   34 ar 
    40   34   35 ar 
    41   35   36 ar 
    42   37   38 ar 
    43   37   39 ar 
    44   40   41 1  
    45   40   44 1  
    46   41   42 ar 
    47   41   43 ar 
    48   44   45 ar 
    49   44   46 ar 
    50    2   47 1  
    51    3   48 1  
    52    6   49 1  
    53    7   50 1  
    54    7   51 1  
    55    8   52 1  
    56   10   53 1  
    57   12   54 1  
    58   15   55 1  
    59   15   56 1  
    60   15   57 1  
    61   16   58 1  
    62   20   59 1  
    63   20   60 1  
    64   21   61 1  
    65   21   62 1  
    66   22   63 1  
    67   22   64 1  
    68   24   65 1  
    69   24   66 1  
    70   25   67 1  
    71   25   68 1  
    72   26   69 1  
    73   27   70 1  
    74   29   71 1  
    75   30   72 1  
    76   32   73 1  
    77   33   74 1  
    78   34   75 1  
    79   35   76 1  
    80   36   77 1  
    81   40   78 1  
@<TRIPOS>SUBSTRUCTURE
     1 852         1

