### 
### Created by X-TOOL on Mon Sep 10 21:12:51 2018
### 

@<TRIPOS>MOLECULE
1o46_ligand
   82    85     1     0     0
SMALL
GAST_HUCK


@<TRIPOS>ATOM
      1 C1         19.1350   25.5170   19.9930 C.ar      1 903        -0.0008
      2 C2         17.9590   25.0900   19.3290 C.ar      1 903        -0.0239
      3 C3         17.2280   26.0830   18.5700 C.ar      1 903        -0.0374
      4 C4         17.7610   27.4250   18.3690 C.ar      1 903         0.0047
      5 C5         19.0400   27.8440   19.0330 C.ar      1 903         0.0811
      6 C6         19.6720   26.8850   19.8450 C.ar      1 903        -0.0074
      7 C7         19.9100   24.6630   20.9570 C.3       1 903         0.0379
      8 C8         19.6210   25.2090   22.3410 C.3       1 903         0.1452
      9 C9         20.3880   24.4090   23.3980 C.2       1 903         0.2068
     10 N10        19.6050   23.3080   23.8240 N.am      1 903        -0.2635
     11 O11        21.5660   24.7110   23.7780 O.2       1 903        -0.3941
     12 N12        20.1350   26.6240   22.4830 N.am      1 903        -0.2633
     13 C13        19.3360   27.4970   23.0940 C.2       1 903         0.1753
     14 O14        18.1180   27.3080   23.2730 O.2       1 903        -0.3972
     15 C15        20.0850   28.8560   23.4910 C.3       1 903         0.0258
     16 C16        20.4610   22.2750   24.4800 C.3       1 903         0.1312
     17 C17        21.4640   21.5080   23.4880 C.2       1 903         0.2060
     18 N18        22.4220   20.6160   24.2850 N.am      1 903        -0.2598
     19 O19        21.4970   21.6360   22.2170 O.2       1 903        -0.3942
     20 C20        22.2620   20.2370   25.7200 C.3       1 903         0.0362
     21 C21        20.9390   19.6910   26.1560 C.3       1 903        -0.0321
     22 C22        23.5220   19.8970   23.6150 C.3       1 903         0.0680
     23 C23        22.9310   18.6080   23.2750 C.ar      1 903        -0.0198
     24 C24        19.9260   20.7840   26.5300 C.3       1 903        -0.0470
     25 C25        19.4000   21.5790   25.3600 C.3       1 903        -0.0123
     26 C26        23.3910   17.4840   23.9450 C.ar      1 903        -0.0570
     27 C27        22.6330   16.2820   23.7810 C.ar      1 903        -0.0600
     28 C28        21.4870   16.1930   23.0090 C.ar      1 903        -0.0242
     29 C29        21.0140   17.3400   22.3090 C.ar      1 903        -0.0600
     30 C30        21.7510   18.5660   22.4090 C.ar      1 903        -0.0570
     31 C31        20.8770   14.8900   22.6510 C.ar      1 903        -0.0221
     32 C32        19.4070   14.7970   22.4960 C.ar      1 903        -0.0557
     33 C33        18.8070   13.5160   22.3050 C.ar      1 903        -0.0622
     34 C34        19.6400   12.3700   22.2470 C.ar      1 903        -0.0627
     35 C35        21.0700   12.5150   22.2160 C.ar      1 903        -0.0622
     36 C36        21.7540   13.7690   22.4340 C.ar      1 903        -0.0557
     37 C37        19.8460   29.2090   18.9070 C.2       1 903         0.2803
     38 O38        19.8400   29.8340   20.1370 O.3       1 903        -0.2778
     39 O39        20.1760   29.6520   17.8550 O.2       1 903        -0.3447
     40 C40        17.0580   28.3120   17.2720 C.3       1 903         0.1803
     41 C41        17.2990   29.7870   17.1940 C.2       1 903         0.0479
     42 O42        17.3420   30.3270   18.5670 O.co2     1 903        -0.5616
     43 O43        17.3010   30.3620   16.0850 O.co2     1 903        -0.5616
     44 C75        15.5720   28.6620   17.8910 C.2       1 903         0.0479
     45 O76        14.7750   28.7100   17.0720 O.co2     1 903        -0.5616
     46 O77        15.1620   29.0160   19.0580 O.co2     1 903        -0.5616
     47 F80        17.3720   28.2160   15.7210 F         1 903        -0.2827
     48 C81        20.2010   31.0060   21.0750 C.3       1 903         0.0650
     49 H1         17.6201   24.0619   19.3867 H         1 903         0.0685
     50 H2         16.2660   25.8236   18.1430 H         1 903         0.0847
     51 H3         20.5770   27.1570   20.3761 H         1 903         0.0714
     52 H4         20.9866   24.7261   20.7405 H         1 903         0.0549
     53 H5         19.5823   23.6154   20.8854 H         1 903         0.0549
     54 H6         18.5385   25.1697   22.5324 H         1 903         0.0833
     55 H7         18.6153   23.2329   23.7022 H         1 903         0.1883
     56 H8         21.0332   26.8919   22.1343 H         1 903         0.1885
     57 H9         19.3760   29.5332   23.9898 H         1 903         0.0467
     58 H10        20.4755   29.3383   22.5828 H         1 903         0.0467
     59 H11        20.9178   28.6299   24.1732 H         1 903         0.0467
     60 H12        21.1402   22.7887   25.1762 H         1 903         0.0800
     61 H13        22.4589   21.1372   26.3206 H         1 903         0.0524
     62 H14        23.0214   19.4734   25.9439 H         1 903         0.0524
     63 H15        21.0986   19.0474   27.0336 H         1 903         0.0285
     64 H16        20.5197   19.0926   25.3338 H         1 903         0.0285
     65 H17        24.3787   19.7698   24.2931 H         1 903         0.0689
     66 H18        23.8468   20.4312   22.7100 H         1 903         0.0689
     67 H19        20.4147   21.4811   27.2266 H         1 903         0.0268
     68 H20        19.0721   20.3039   27.0303 H         1 903         0.0268
     69 H21        18.8279   20.8933   24.7178 H         1 903         0.0312
     70 H22        18.7294   22.3559   25.7559 H         1 903         0.0312
     71 H23        24.2813   17.5149   24.5626 H         1 903         0.0561
     72 H24        22.9757   15.3888   24.2908 H         1 903         0.0609
     73 H25        20.1117   17.2869   21.7106 H         1 903         0.0609
     74 H26        21.4407   19.4443   21.8545 H         1 903         0.0561
     75 H27        18.7943   15.6907   22.5272 H         1 903         0.0615
     76 H28        17.7317   13.4208   22.2059 H         1 903         0.0615
     77 H29        19.1970   11.3809   22.2260 H         1 903         0.0610
     78 H30        21.6691   11.6336   22.0178 H         1 903         0.0615
     79 H31        22.8343   13.8581   22.4341 H         1 903         0.0615
     80 H32        19.8174   30.7989   22.0849 H         1 903         0.0575
     81 H33        19.7485   31.9334   20.6940 H         1 903         0.0575
     82 H34        21.2943   31.1207   21.1145 H         1 903         0.0575
@<TRIPOS>BOND
     1    1    2 ar 
     2    1    6 ar 
     3    1    7 1  
     4    2    3 ar 
     5    3    4 ar 
     6    4    5 ar 
     7    4   40 1  
     8    5    6 ar 
     9    5   37 1  
    10    7    8 1  
    11    8    9 1  
    12    8   12 1  
    13    9   10 am 
    14    9   11 2  
    15   10   16 1  
    16   12   13 am 
    17   13   14 2  
    18   13   15 1  
    19   16   17 1  
    20   16   25 1  
    21   17   18 am 
    22   17   19 2  
    23   18   20 1  
    24   18   22 1  
    25   20   21 1  
    26   21   24 1  
    27   22   23 1  
    28   23   26 ar 
    29   23   30 ar 
    30   24   25 1  
    31   26   27 ar 
    32   27   28 ar 
    33   28   29 ar 
    34   28   31 1  
    35   29   30 ar 
    36   31   32 ar 
    37   31   36 ar 
    38   32   33 ar 
    39   33   34 ar 
    40   34   35 ar 
    41   35   36 ar 
    42   37   38 1  
    43   37   39 2  
    44   38   48 1  
    45   40   41 1  
    46   40   44 1  
    47   40   47 1  
    48   41   42 ar 
    49   41   43 ar 
    50   44   45 ar 
    51   44   46 ar 
    52    2   49 1  
    53    3   50 1  
    54    6   51 1  
    55    7   52 1  
    56    7   53 1  
    57    8   54 1  
    58   10   55 1  
    59   12   56 1  
    60   15   57 1  
    61   15   58 1  
    62   15   59 1  
    63   16   60 1  
    64   20   61 1  
    65   20   62 1  
    66   21   63 1  
    67   21   64 1  
    68   22   65 1  
    69   22   66 1  
    70   24   67 1  
    71   24   68 1  
    72   25   69 1  
    73   25   70 1  
    74   26   71 1  
    75   27   72 1  
    76   29   73 1  
    77   30   74 1  
    78   32   75 1  
    79   33   76 1  
    80   34   77 1  
    81   35   78 1  
    82   36   79 1  
    83   48   80 1  
    84   48   81 1  
    85   48   82 1  
@<TRIPOS>SUBSTRUCTURE
     1 903         1

