### 
### Created by X-TOOL on Mon Sep 10 21:12:51 2018
### 

@<TRIPOS>MOLECULE
1o48_ligand
   76    79     1     0     0
SMALL
GAST_HUCK


@<TRIPOS>ATOM
      1 C1         19.0180   25.2650   19.5650 C.ar      1 853        -0.0415
      2 C2         17.6520   24.9090   19.3890 C.ar      1 853        -0.0636
      3 C3         16.8230   25.6810   18.5460 C.ar      1 853        -0.0613
      4 C4         17.4120   26.7520   17.7840 C.ar      1 853        -0.0222
      5 C5         18.8340   27.0580   17.8510 C.ar      1 853         0.0069
      6 C6         19.6220   26.3270   18.8080 C.ar      1 853        -0.0521
      7 C10        19.8470   24.4880   20.6190 C.3       1 853         0.0190
      8 C11        19.6000   25.0830   22.0150 C.3       1 853         0.1395
      9 C14        20.3030   24.2510   23.0760 C.2       1 853         0.2058
     10 N15        19.6080   23.2240   23.5300 N.am      1 853        -0.2636
     11 O16        21.4340   24.5430   23.4610 O.2       1 853        -0.3942
     12 N17        20.0370   26.4980   22.0200 N.am      1 853        -0.2642
     13 C18        19.3900   27.3850   22.8110 C.2       1 853         0.1752
     14 O19        18.4100   27.0780   23.4990 O.2       1 853        -0.3972
     15 C20        19.9870   28.8260   22.7870 C.3       1 853         0.0258
     16 C24        20.2910   22.2440   24.3590 C.3       1 853         0.1312
     17 C25        21.3620   21.4210   23.5300 C.2       1 853         0.2060
     18 N26        22.1650   20.5580   24.2570 N.am      1 853        -0.2598
     19 O27        21.4630   21.5680   22.3020 O.2       1 853        -0.3942
     20 C28        22.0180   20.2790   25.6930 C.3       1 853         0.0362
     21 C29        20.7200   19.5960   26.0560 C.3       1 853        -0.0321
     22 C32        23.1790   19.6830   23.5820 C.3       1 853         0.0680
     23 C33        22.5560   18.3030   23.3220 C.ar      1 853        -0.0198
     24 C36        19.5640   20.5780   26.2040 C.3       1 853        -0.0470
     25 C39        19.1950   21.3400   24.9190 C.3       1 853        -0.0123
     26 C46        21.4050   18.2670   22.4350 C.ar      1 853        -0.0570
     27 C47        20.7220   17.0590   22.2680 C.ar      1 853        -0.0600
     28 C48        21.2760   15.8760   22.8910 C.ar      1 853        -0.0242
     29 C49        22.4610   15.8860   23.7320 C.ar      1 853        -0.0600
     30 C50        23.0610   17.1320   23.9890 C.ar      1 853        -0.0570
     31 C55        20.5670   14.5840   22.5790 C.ar      1 853        -0.0221
     32 C56        19.1380   14.5620   22.3830 C.ar      1 853        -0.0557
     33 C57        18.5180   13.3350   22.1240 C.ar      1 853        -0.0622
     34 C58        19.2670   12.1240   22.1060 C.ar      1 853        -0.0627
     35 C59        20.6550   12.1450   22.2830 C.ar      1 853        -0.0622
     36 C60        21.3340   13.3780   22.4640 C.ar      1 853        -0.0557
     37 C68        19.5240   27.9820   16.8640 C.2       1 853         0.0573
     38 O69        20.0090   29.1550   17.2750 O.co2     1 853        -0.5629
     39 O70        19.6160   27.6680   15.7090 O.co2     1 853        -0.5629
     40 C71        16.4750   27.4870   16.8220 C.3       1 853         0.0329
     41 C72        15.3310   28.2450   17.4900 C.2       1 853         0.0460
     42 O75        14.5580   28.8060   16.5620 O.co2     1 853        -0.5664
     43 O76        15.1400   28.3530   18.6620 O.co2     1 853        -0.5664
     44 H1         17.2472   24.0444   19.9025 H         1 853         0.0562
     45 H2         15.7619   25.4713   18.4736 H         1 853         0.0550
     46 H3         20.6664   26.5762   18.9572 H         1 853         0.0572
     47 H4         20.9162   24.5655   20.3726 H         1 853         0.0461
     48 H5         19.5453   23.4302   20.6140 H         1 853         0.0461
     49 H6         18.5202   25.0559   22.2233 H         1 853         0.0822
     50 H7         18.6378   23.1230   23.3095 H         1 853         0.1883
     51 H8         20.8005   26.7942   21.4461 H         1 853         0.1884
     52 H9         19.4024   29.4762   23.4545 H         1 853         0.0467
     53 H10        19.9471   29.2224   21.7617 H         1 853         0.0467
     54 H11        21.0324   28.7956   23.1280 H         1 853         0.0467
     55 H12        20.8073   22.7544   25.1854 H         1 853         0.0800
     56 H13        22.0712   21.2330   26.2381 H         1 853         0.0524
     57 H14        22.8495   19.6307   26.0064 H         1 853         0.0524
     58 H15        20.8557   19.0650   27.0097 H         1 853         0.0285
     59 H16        20.4692   18.8728   25.2660 H         1 853         0.0285
     60 H17        24.0609   19.5731   24.2301 H         1 853         0.0689
     61 H18        23.4804   20.1373   22.6266 H         1 853         0.0689
     62 H19        19.8382   21.3159   26.9724 H         1 853         0.0268
     63 H20        18.6781   20.0161   26.5348 H         1 853         0.0268
     64 H21        18.9375   20.5998   24.1471 H         1 853         0.0312
     65 H22        18.3162   21.9652   25.1352 H         1 853         0.0312
     66 H23        21.0823   19.1604   21.9127 H         1 853         0.0561
     67 H24        19.8062   17.0098   21.6901 H         1 853         0.0609
     68 H25        22.8666   14.9695   24.1450 H         1 853         0.0609
     69 H26        23.8925   17.2092   24.6801 H         1 853         0.0561
     70 H27        18.5575   15.4760   22.4353 H         1 853         0.0615
     71 H28        17.4512   13.3056   21.9341 H         1 853         0.0615
     72 H29        18.7582   11.1789   21.9541 H         1 853         0.0610
     73 H30        21.2136   11.2160   22.2819 H         1 853         0.0615
     74 H31        22.4164   13.4076   22.5146 H         1 853         0.0615
     75 H32        16.0388   26.7452   16.1368 H         1 853         0.0584
     76 H33        17.0736   28.2093   16.2476 H         1 853         0.0584
@<TRIPOS>BOND
     1    1    2 ar 
     2    1    6 ar 
     3    1    7 1  
     4    2    3 ar 
     5    3    4 ar 
     6    4    5 ar 
     7    4   40 1  
     8    5    6 ar 
     9    5   37 1  
    10    7    8 1  
    11    8    9 1  
    12    8   12 1  
    13    9   10 am 
    14    9   11 2  
    15   10   16 1  
    16   12   13 am 
    17   13   14 2  
    18   13   15 1  
    19   16   17 1  
    20   16   25 1  
    21   17   18 am 
    22   17   19 2  
    23   18   20 1  
    24   18   22 1  
    25   20   21 1  
    26   21   24 1  
    27   22   23 1  
    28   23   26 ar 
    29   23   30 ar 
    30   24   25 1  
    31   26   27 ar 
    32   27   28 ar 
    33   28   29 ar 
    34   28   31 1  
    35   29   30 ar 
    36   31   32 ar 
    37   31   36 ar 
    38   32   33 ar 
    39   33   34 ar 
    40   34   35 ar 
    41   35   36 ar 
    42   37   38 ar 
    43   37   39 ar 
    44   40   41 1  
    45   41   42 ar 
    46   41   43 ar 
    47    2   44 1  
    48    3   45 1  
    49    6   46 1  
    50    7   47 1  
    51    7   48 1  
    52    8   49 1  
    53   10   50 1  
    54   12   51 1  
    55   15   52 1  
    56   15   53 1  
    57   15   54 1  
    58   16   55 1  
    59   20   56 1  
    60   20   57 1  
    61   21   58 1  
    62   21   59 1  
    63   22   60 1  
    64   22   61 1  
    65   24   62 1  
    66   24   63 1  
    67   25   64 1  
    68   25   65 1  
    69   26   66 1  
    70   27   67 1  
    71   29   68 1  
    72   30   69 1  
    73   32   70 1  
    74   33   71 1  
    75   34   72 1  
    76   35   73 1  
    77   36   74 1  
    78   40   75 1  
    79   40   76 1  
@<TRIPOS>SUBSTRUCTURE
     1 853         1

