### 
### Created by X-TOOL on Mon Sep 10 21:12:51 2018
### 

@<TRIPOS>MOLECULE
1o4a_ligand
   75    78     1     0     0
SMALL
GAST_HUCK


@<TRIPOS>ATOM
      1 C1         19.7650   25.7160   18.0330 C.ar      1 197        -0.0632
      2 C2         19.1120   26.4000   16.9760 C.ar      1 197        -0.0606
      3 C3         17.6760   26.3620   16.8220 C.ar      1 197         0.0069
      4 C4         16.9490   25.5680   17.7600 C.ar      1 197        -0.0099
      5 C5         17.5950   24.9470   18.8810 C.ar      1 197        -0.0529
      6 C6         18.9910   25.0230   19.0090 C.ar      1 197        -0.0424
      7 C7         19.6770   24.3670   20.1900 C.3       1 197         0.0211
      8 C8         19.2970   25.0390   21.5160 C.3       1 197         0.1406
      9 C9         20.0570   24.3250   22.5960 C.2       1 197         0.2060
     10 N10        19.3480   23.2980   23.1150 N.am      1 197        -0.2636
     11 N11        19.7280   26.4500   21.5740 N.am      1 197        -0.2640
     12 C12        18.8770   27.4740   21.6000 C.2       1 197         0.1753
     13 C13        19.6670   28.7800   21.4210 C.3       1 197         0.0258
     14 O14        17.6420   27.4150   21.6070 O.2       1 197        -0.3972
     15 O15        21.2110   24.6650   22.9410 O.2       1 197        -0.3942
     16 C16        20.0040   22.3290   23.9430 C.3       1 197         0.1312
     17 C17        18.8880   21.4630   24.5380 C.3       1 197        -0.0123
     18 C18        19.4240   20.8530   25.8200 C.3       1 197        -0.0470
     19 C19        20.5950   19.9080   25.8250 C.3       1 197        -0.0321
     20 C20        21.9420   20.4580   25.3400 C.3       1 197         0.0362
     21 N21        22.0390   20.7010   23.8890 N.am      1 197        -0.2598
     22 C22        21.1540   21.5130   23.1340 C.2       1 197         0.2060
     23 C23        23.0340   19.8310   23.2040 C.3       1 197         0.0680
     24 C24        22.4410   18.4940   22.9660 C.ar      1 197        -0.0198
     25 O25        21.1830   21.6180   21.8970 O.2       1 197        -0.3942
     26 C46        22.9840   17.2850   23.5730 C.ar      1 197        -0.0570
     27 C47        22.3530   15.9970   23.3820 C.ar      1 197        -0.0600
     28 C48        21.1690   15.9800   22.5690 C.ar      1 197        -0.0242
     29 C49        20.6360   17.1750   21.9840 C.ar      1 197        -0.0600
     30 C50        21.2650   18.4540   22.1630 C.ar      1 197        -0.0570
     31 C55        20.4270   14.7220   22.2570 C.ar      1 197        -0.0221
     32 C56        21.1720   13.5330   22.0600 C.ar      1 197        -0.0557
     33 C57        20.4940   12.3360   21.7590 C.ar      1 197        -0.0622
     34 C58        19.0670   12.3760   21.6700 C.ar      1 197        -0.0627
     35 C59        18.3110   13.5950   21.9110 C.ar      1 197        -0.0622
     36 C60        19.0090   14.7680   22.1860 C.ar      1 197        -0.0557
     37 C68        17.0580   27.2100   15.7360 C.2       1 197         0.0543
     38 O69        17.5840   27.4880   14.7200 O.co2     1 197        -0.5647
     39 O70        15.8570   27.6580   15.8510 O.co2     1 197        -0.5647
     40 C71        15.5320   25.4910   17.7840 C.3       1 197         0.0790
     41 O72        14.8670   26.6290   18.2070 O.3       1 197        -0.3819
     42 H1         20.8470   25.7202   18.0983 H         1 197         0.0508
     43 H2         19.7050   26.9653   16.2661 H         1 197         0.0616
     44 H3         17.0078   24.4217   19.6255 H         1 197         0.0502
     45 H4         20.7662   24.4389   20.0539 H         1 197         0.0479
     46 H5         19.3815   23.3082   20.2301 H         1 197         0.0479
     47 H6         18.2113   24.9675   21.6773 H         1 197         0.0824
     48 H7         18.3703   23.2145   22.9223 H         1 197         0.1883
     49 H8         20.7083   26.6466   21.5948 H         1 197         0.1884
     50 H9         18.9735   29.6336   21.4409 H         1 197         0.0467
     51 H10        20.1957   28.7595   20.4566 H         1 197         0.0467
     52 H11        20.3972   28.8817   22.2374 H         1 197         0.0467
     53 H12        20.5062   22.8534   24.7693 H         1 197         0.0800
     54 H13        18.6108   20.6679   23.8302 H         1 197         0.0312
     55 H14        18.0063   22.0833   24.7564 H         1 197         0.0312
     56 H15        18.5851   20.3059   26.2749 H         1 197         0.0268
     57 H16        19.7062   21.6962   26.4676 H         1 197         0.0268
     58 H17        20.3347   19.0552   25.1809 H         1 197         0.0285
     59 H18        20.7334   19.5581   26.8586 H         1 197         0.0285
     60 H19        22.7234   19.7348   25.6161 H         1 197         0.0524
     61 H20        22.1255   21.4114   25.8570 H         1 197         0.0524
     62 H21        23.9280   19.7281   23.8366 H         1 197         0.0689
     63 H22        23.3157   20.2835   22.2418 H         1 197         0.0689
     64 H23        23.8794   17.3523   24.1803 H         1 197         0.0561
     65 H24        22.7523   15.0935   23.8284 H         1 197         0.0609
     66 H25        19.7320   17.1118   21.3892 H         1 197         0.0609
     67 H26        20.8619   19.3507   21.7064 H         1 197         0.0561
     68 H27        22.2530   13.5446   22.1402 H         1 197         0.0615
     69 H28        21.0374   11.4117   21.5995 H         1 197         0.0615
     70 H29        18.5317   11.4686   21.4147 H         1 197         0.0610
     71 H30        17.2275   13.5904   21.8772 H         1 197         0.0615
     72 H31        18.4793   15.7006   22.3433 H         1 197         0.0615
     73 H32        15.2516   24.6680   18.4578 H         1 197         0.0729
     74 H33        15.1906   25.2621   16.7637 H         1 197         0.0729
     75 H34        15.0817   27.3527   17.6302 H         1 197         0.2128
@<TRIPOS>BOND
     1    1    2 ar 
     2    1    6 ar 
     3    2    3 ar 
     4    3    4 ar 
     5    3   37 1  
     6    4    5 ar 
     7    4   40 1  
     8    5    6 ar 
     9    6    7 1  
    10    7    8 1  
    11    8    9 1  
    12    8   11 1  
    13    9   10 am 
    14    9   15 2  
    15   10   16 1  
    16   11   12 am 
    17   12   13 1  
    18   12   14 2  
    19   16   17 1  
    20   16   22 1  
    21   17   18 1  
    22   18   19 1  
    23   19   20 1  
    24   20   21 1  
    25   21   22 am 
    26   21   23 1  
    27   22   25 2  
    28   23   24 1  
    29   24   26 ar 
    30   24   30 ar 
    31   26   27 ar 
    32   27   28 ar 
    33   28   29 ar 
    34   28   31 1  
    35   29   30 ar 
    36   31   32 ar 
    37   31   36 ar 
    38   32   33 ar 
    39   33   34 ar 
    40   34   35 ar 
    41   35   36 ar 
    42   37   38 ar 
    43   37   39 ar 
    44   40   41 1  
    45    1   42 1  
    46    2   43 1  
    47    5   44 1  
    48    7   45 1  
    49    7   46 1  
    50    8   47 1  
    51   10   48 1  
    52   11   49 1  
    53   13   50 1  
    54   13   51 1  
    55   13   52 1  
    56   16   53 1  
    57   17   54 1  
    58   17   55 1  
    59   18   56 1  
    60   18   57 1  
    61   19   58 1  
    62   19   59 1  
    63   20   60 1  
    64   20   61 1  
    65   23   62 1  
    66   23   63 1  
    67   26   64 1  
    68   27   65 1  
    69   29   66 1  
    70   30   67 1  
    71   32   68 1  
    72   33   69 1  
    73   34   70 1  
    74   35   71 1  
    75   36   72 1  
    76   40   73 1  
    77   40   74 1  
    78   41   75 1  
@<TRIPOS>SUBSTRUCTURE
     1 197         1

