### 
### Created by X-TOOL on Mon Sep 10 21:12:51 2018
### 

@<TRIPOS>MOLECULE
1o4l_ligand
   18    17     1     0     0
SMALL
GAST_HUCK


@<TRIPOS>ATOM
      1 C1         15.2200   28.7550   17.7270 C.2       1 CIT         0.0371
      2 O1         14.5170   28.5700   16.6050 O.co2     1 CIT        -0.5690
      3 O2         14.8940   28.3450   18.8290 O.co2     1 CIT        -0.5690
      4 C2         16.4970   29.5970   17.5930 C.3       1 CIT         0.0356
      5 C3         17.5950   28.6730   17.0620 C.3       1 CIT         0.1328
      6 O7         17.6300   27.5480   17.9420 O.3       1 CIT        -0.3818
      7 C4         18.8300   29.6540   17.1360 C.3       1 CIT         0.0356
      8 C5         20.1450   29.0290   16.5860 C.2       1 CIT         0.0371
      9 O3         21.2650   29.4800   16.9030 O.co2     1 CIT        -0.5690
     10 O4         20.0690   27.9750   15.7340 O.co2     1 CIT        -0.5690
     11 C6         17.3640   28.2000   15.6890 C.2       1 CIT         0.0796
     12 O5         17.3380   29.1900   14.7920 O.co2     1 CIT        -0.5449
     13 O6         16.9790   27.0780   15.3980 O.co2     1 CIT        -0.5449
     14 H1         16.7866   30.0012   18.5742 H         1 CIT         0.0452
     15 H2         16.3296   30.4261   16.8898 H         1 CIT         0.0452
     16 H3         16.7847   27.1146   17.9339 H         1 CIT         0.2091
     17 H4         18.9901   29.9355   18.1872 H         1 CIT         0.0452
     18 H5         18.5976   30.5534   16.5468 H         1 CIT         0.0452
@<TRIPOS>BOND
     1    1    2 ar 
     2    1    3 ar 
     3    1    4 1  
     4    4    5 1  
     5    5    6 1  
     6    5    7 1  
     7    5   11 1  
     8    7    8 1  
     9    8    9 ar 
    10    8   10 ar 
    11   11   12 ar 
    12   11   13 ar 
    13    4   14 1  
    14    4   15 1  
    15    6   16 1  
    16    7   17 1  
    17    7   18 1  
@<TRIPOS>SUBSTRUCTURE
     1 CIT         1

