### 
### Created by X-TOOL on Sun Sep  9 21:50:05 2018
### 

@<TRIPOS>MOLECULE
1o4m_ligand
    9     8     1     0     0
SMALL
GAST_HUCK


@<TRIPOS>ATOM
      1 C1         15.2370   28.6760   17.6000 C.2       1 NON         0.0480
      2 O1A        15.0440   28.3250   18.8650 O.co2     1 NON        -0.5669
      3 O1B        14.3330   28.8070   16.8260 O.co2     1 NON        -0.5669
      4 C2         16.6990   28.9370   17.2790 C.3       1 NON         0.0528
      5 C3         17.4570   27.6520   16.9270 C.2       1 NON         0.0480
      6 O3A        17.7230   27.2710   15.6590 O.co2     1 NON        -0.5669
      7 O3B        17.9020   26.9620   17.7940 O.co2     1 NON        -0.5669
      8 H1         17.1761   29.4001   18.1553 H         1 NON         0.0595
      9 H2         16.7556   29.6263   16.4236 H         1 NON         0.0595
@<TRIPOS>BOND
     1    1    2 ar 
     2    1    3 ar 
     3    1    4 1  
     4    4    5 1  
     5    5    6 ar 
     6    5    7 ar 
     7    4    8 1  
     8    4    9 1  
@<TRIPOS>SUBSTRUCTURE
     1 NON         1

