### 
### Created by X-TOOL on Mon Sep 10 21:12:51 2018
### 

@<TRIPOS>MOLECULE
1o4n_ligand
    6     5     1     0     0
SMALL
GAST_HUCK


@<TRIPOS>ATOM
      1 C1         15.1570   28.5040   17.9410 C.2       1 OXD         0.0999
      2 C2         16.6000   28.3120   17.4930 C.2       1 OXD         0.0999
      3 O3         15.0390   28.1190   19.1740 O.co2     1 OXD        -0.5500
      4 O4         17.4950   28.2440   18.3880 O.co2     1 OXD        -0.5500
      5 O5         14.3100   28.7370   17.0430 O.co2     1 OXD        -0.5500
      6 O6         16.8690   28.0340   16.3790 O.co2     1 OXD        -0.5500
@<TRIPOS>BOND
     1    1    2 1  
     2    1    3 ar 
     3    1    5 ar 
     4    2    4 ar 
     5    2    6 ar 
@<TRIPOS>SUBSTRUCTURE
     1 OXD         1

