### 
### Created by X-TOOL on Mon Sep 10 21:12:51 2018
### 

@<TRIPOS>MOLECULE
1o4p_ligand
   19    19     1     0     0
SMALL
GAST_HUCK


@<TRIPOS>ATOM
      1 C1         18.3950   24.6180   19.6170 C.ar      1 791        -0.0684
      2 C2         19.1640   25.8080   19.6450 C.ar      1 791        -0.0680
      3 C3         18.7110   27.0130   19.0240 C.ar      1 791        -0.0567
      4 C4         17.4530   26.9890   18.4000 C.ar      1 791        -0.0144
      5 C5         16.7060   25.7860   18.4070 C.ar      1 791        -0.0567
      6 C6         17.1370   24.5930   18.9880 C.ar      1 791        -0.0680
      7 C12        16.8570   28.1540   17.6640 C.3       1 791         0.0968
      8 C13        15.4520   28.5640   18.0810 C.2       1 791         0.0626
      9 C14        17.4000   28.6220   16.3020 C.2       1 791         0.0626
     10 O16        14.7160   28.8540   17.0720 O.co2     1 791        -0.5642
     11 O17        15.2020   28.7360   19.2040 O.co2     1 791        -0.5642
     12 O18        17.5040   29.9270   16.0100 O.co2     1 791        -0.5642
     13 O19        17.5550   27.7640   15.5980 O.co2     1 791        -0.5642
     14 H1         18.7797   23.7188   20.0845 H         1 791         0.0562
     15 H2         20.1224   25.8043   20.1515 H         1 791         0.0600
     16 H3         19.3161   27.9123   19.0343 H         1 791         0.0562
     17 H4         15.7333   25.7924   17.9285 H         1 791         0.0562
     18 H5         16.5335   23.6931   18.9563 H         1 791         0.0600
     19 H6         17.3814   28.9263   18.2458 H         1 791         0.0785
@<TRIPOS>BOND
     1    1    2 ar 
     2    1    6 ar 
     3    2    3 ar 
     4    3    4 ar 
     5    4    5 ar 
     6    4    7 1  
     7    5    6 ar 
     8    7    8 1  
     9    7    9 1  
    10    8   10 ar 
    11    8   11 ar 
    12    9   12 ar 
    13    9   13 ar 
    14    1   14 1  
    15    2   15 1  
    16    3   16 1  
    17    5   17 1  
    18    6   18 1  
    19    7   19 1  
@<TRIPOS>SUBSTRUCTURE
     1 791         1

