### 
### Created by X-TOOL on Mon Sep 10 21:12:51 2018
### 

@<TRIPOS>MOLECULE
1o4q_ligand
   20    20     1     0     0
SMALL
GAST_HUCK


@<TRIPOS>ATOM
      1 C1         19.2570   25.6420   20.2430 C.ar      1 256        -0.0685
      2 C2         18.2100   24.7790   19.9800 C.ar      1 256        -0.0682
      3 C3         17.2820   25.1710   19.0340 C.ar      1 256        -0.0569
      4 C4         17.4230   26.4420   18.4450 C.ar      1 256        -0.0093
      5 C5         18.5210   27.2830   18.6850 C.ar      1 256        -0.0569
      6 C6         19.4480   26.8930   19.6280 C.ar      1 256        -0.0682
      7 C7         16.3750   26.9920   17.5700 C.3       1 256         0.1269
      8 C8         16.8680   27.1890   16.0860 C.2       1 256         0.0676
      9 O9         16.4340   26.0580   15.3950 O.co2     1 256        -0.5645
     10 S10        15.4940   28.4450   18.0420 S.o2      1 256        -0.1666
     11 O12        14.4060   28.5190   16.8500 O.co2     1 256        -0.4807
     12 O13        17.4130   28.1450   15.5810 O.co2     1 256        -0.5645
     13 O14        16.3730   29.6100   17.9990 O.co2     1 256        -0.4807
     14 O15        14.9320   28.2490   19.3570 O.co2     1 256        -0.4807
     15 H1         19.9880   25.3308   20.9805 H         1 256         0.0560
     16 H2         18.1201   23.8302   20.4964 H         1 256         0.0600
     17 H3         16.4655   24.5160   18.7523 H         1 256         0.0560
     18 H4         18.6370   28.2146   18.1431 H         1 256         0.0560
     19 H5         20.2903   27.5249   19.8854 H         1 256         0.0600
     20 H6         15.6130   26.1992   17.5402 H         1 256         0.0833
@<TRIPOS>BOND
     1    1    2 ar 
     2    1    6 ar 
     3    2    3 ar 
     4    3    4 ar 
     5    4    5 ar 
     6    4    7 1  
     7    5    6 ar 
     8    7    8 1  
     9    7   10 1  
    10    8    9 ar 
    11    8   12 ar 
    12   10   11 ar 
    13   10   13 ar 
    14   10   14 ar 
    15    1   15 1  
    16    2   16 1  
    17    3   17 1  
    18    5   18 1  
    19    6   19 1  
    20    7   20 1  
@<TRIPOS>SUBSTRUCTURE
     1 256         1

