### 
### Created by X-TOOL on Mon Sep 10 21:12:51 2018
### 

@<TRIPOS>MOLECULE
1o5a_ligand
   43    46     1     0     0
SMALL
GAST_HUCK


@<TRIPOS>ATOM
      1 C1          8.8380    1.4080   24.7320 C.ar      1 696         0.0081
      2 C2          9.5770    1.2570   23.5180 C.ar      1 696        -0.0716
      3 C3         10.1720    2.3630   22.8700 C.ar      1 696        -0.0437
      4 C4         10.0190    3.6070   23.4440 C.ar      1 696         0.0625
      5 C5          9.3150    3.7560   24.6070 C.ar      1 696        -0.0269
      6 C6          8.7160    2.6960   25.2720 C.ar      1 696        -0.0699
      7 C7          8.2460    0.3110   25.4050 C.cat     1 696         0.2284
      8 N1          7.8690    0.4230   26.6500 N.pl3     1 696        -0.2733
      9 N2          8.0680   -0.8270   24.7980 N.pl3     1 696        -0.2733
     10 N3         10.4730    4.7830   23.0820 N.pl3     1 696        -0.2762
     11 CN4         9.3530    5.0680   24.9460 C.2       1 696        -0.0577
     12 C8         10.0970    5.6970   23.9540 C.2       1 696         0.0606
     13 C1'        10.2890    7.0770   23.8120 C.ar      1 696         0.0381
     14 C2'         9.9050    7.9410   24.8400 C.ar      1 696        -0.0591
     15 C3'        10.0830    9.3080   24.7200 C.ar      1 696        -0.0712
     16 C4'        10.6510    9.8240   23.5680 C.ar      1 696        -0.0615
     17 C5'        11.0550    8.9920   22.5170 C.ar      1 696         0.0146
     18 C6'        10.8670    7.6080   22.6410 C.ar      1 696         0.1121
     19 O6'        11.2590    6.7530   21.6380 O.3       1 696        -0.3267
     20 C1''       11.6950    9.6290   21.4470 C.ar      1 696        -0.0215
     21 C2''       12.9140    9.1540   20.9830 C.ar      1 696        -0.0570
     22 C3''       13.6140    9.8380   19.9820 C.ar      1 696        -0.0632
     23 C4''       13.0840   10.9980   19.4470 C.ar      1 696        -0.0635
     24 C5''       11.8650   11.4590   19.9100 C.ar      1 696        -0.0632
     25 C6''       11.1790   10.7870   20.8920 C.ar      1 696        -0.0570
     26 H1          9.6837    0.2696   23.0835 H         1 696         0.0528
     27 H2         10.7314    2.2371   21.9501 H         1 696         0.0539
     28 H3          8.1647    2.8604   26.1907 H         1 696         0.0531
     29 H4          7.4394   -0.3794   27.1322 H         1 696         0.3180
     30 H5          8.0012    1.3137   27.1500 H         1 696         0.3180
     31 H6          8.3579   -0.9377   23.8159 H         1 696         0.3180
     32 H7          7.6372   -1.6166   25.2999 H         1 696         0.3180
     33 H8         11.0393    4.9652   22.2411 H         1 696         0.2230
     34 H9          8.8946    5.5340   25.8170 H         1 696         0.0294
     35 H10         9.4622    7.5358   25.7427 H         1 696         0.0593
     36 H11         9.7797    9.9703   25.5227 H         1 696         0.0530
     37 H12        10.7860   10.8958   23.4776 H         1 696         0.0593
     38 H13        11.0573    5.8591   21.8886 H         1 696         0.2521
     39 H14        13.3285    8.2434   21.4003 H         1 696         0.0606
     40 H15        14.5665    9.4604   19.6281 H         1 696         0.0613
     41 H16        13.6176   11.5393   18.6741 H         1 696         0.0603
     42 H17        11.4440   12.3657   19.4909 H         1 696         0.0613
     43 H18        10.2239   11.1675   21.2357 H         1 696         0.0606
@<TRIPOS>BOND
     1    1    2 ar 
     2    1    6 ar 
     3    1    7 1  
     4    2    3 ar 
     5    3    4 ar 
     6    4    5 ar 
     7    4   10 1  
     8    5    6 ar 
     9    5   11 1  
    10    7    8 ar 
    11    7    9 ar 
    12   10   12 1  
    13   11   12 2  
    14   12   13 1  
    15   13   14 ar 
    16   13   18 ar 
    17   14   15 ar 
    18   15   16 ar 
    19   16   17 ar 
    20   17   18 ar 
    21   17   20 1  
    22   18   19 1  
    23   20   21 ar 
    24   20   25 ar 
    25   21   22 ar 
    26   22   23 ar 
    27   23   24 ar 
    28   24   25 ar 
    29    2   26 1  
    30    3   27 1  
    31    6   28 1  
    32    8   29 1  
    33    8   30 1  
    34    9   31 1  
    35    9   32 1  
    36   10   33 1  
    37   11   34 1  
    38   14   35 1  
    39   15   36 1  
    40   16   37 1  
    41   19   38 1  
    42   21   39 1  
    43   22   40 1  
    44   23   41 1  
    45   24   42 1  
    46   25   43 1  
@<TRIPOS>SUBSTRUCTURE
     1 696         1

