### 
### Created by X-TOOL on Fri Sep 26 17:34:26 2014
### 

@<TRIPOS>MOLECULE
1o5b_ligand
   21    22     1     0     0
SMALL
GAST_HUCK


@<TRIPOS>ATOM
      1 C0          8.1140   -0.8340   25.7320 C.cat     1 ESI         0.2505
      2 C1          8.4340    0.4560   25.3630 C.2       1 ESI         0.0861
      3 N1          7.5200   -1.0380   26.8710 N.pl3     1 ESI        -0.2704
      4 N2          8.4430   -1.7620   24.8810 N.pl3     1 ESI        -0.2704
      5 S2          9.1450    0.8600   23.8020 S.3       1 ESI        -0.0309
      6 C3          9.2620    2.5530   24.1340 C.ar      1 ESI         0.0403
      7 C4          8.7610    2.7660   25.4100 C.ar      1 ESI        -0.0155
      8 C5          8.3190    1.6440   26.0560 C.2       1 ESI        -0.0536
      9 C6          9.7350    3.5820   23.3530 C.ar      1 ESI        -0.0472
     10 C7          9.7120    4.8670   23.8710 C.ar      1 ESI        -0.0674
     11 C8          9.2230    5.0950   25.1450 C.ar      1 ESI        -0.0610
     12 C9          8.7480    4.0610   25.9310 C.ar      1 ESI         0.0037
     13 I9          8.1220    4.5890   27.7890 I         1 ESI        -0.0547
     14 H1          7.2750   -1.9958   27.1598 H         1 ESI         0.3182
     15 H2          7.2946   -0.2417   27.4842 H         1 ESI         0.3182
     16 H3          8.9126   -1.5096   23.9997 H         1 ESI         0.3182
     17 H4          8.2338   -2.7489   25.0887 H         1 ESI         0.3182
     18 H5          7.9001    1.6859   27.0603 H         1 ESI         0.0425
     19 H6         10.1165    3.3921   22.3563 H         1 ESI         0.0593
     20 H7         10.0782    5.6960   23.2763 H         1 ESI         0.0573
     21 H8          9.2119    6.1061   25.5356 H         1 ESI         0.0587
@<TRIPOS>BOND
     1    1    2 1  
     2    1    3 ar 
     3    1    4 ar 
     4    2    5 1  
     5    2    8 2  
     6    5    6 1  
     7    6    7 ar 
     8    6    9 ar 
     9    7    8 1  
    10    7   12 ar 
    11    9   10 ar 
    12   10   11 ar 
    13   11   12 ar 
    14   12   13 1  
    15    3   14 1  
    16    3   15 1  
    17    4   16 1  
    18    4   17 1  
    19    8   18 1  
    20    9   19 1  
    21   10   20 1  
    22   11   21 1  
@<TRIPOS>SUBSTRUCTURE
     1 ESI         1

