### 
### Created by X-TOOL on Mon Sep 10 21:12:51 2018
### 

@<TRIPOS>MOLECULE
1o5c_ligand
   52    55     1     0     0
SMALL
GAST_HUCK


@<TRIPOS>ATOM
      1 C1          9.0020    1.4910   24.6770 C.ar      1 CR9         0.0450
      2 C2          9.8640    1.3400   23.5390 C.ar      1 CR9         0.1246
      3 F2         10.1700    0.1120   23.0300 F         1 CR9        -0.1907
      4 C3         10.4530    2.4210   22.8940 C.ar      1 CR9        -0.0071
      5 C4         10.1720    3.6340   23.4030 C.ar      1 CR9         0.0786
      6 C5          9.3730    3.8380   24.4630 C.ar      1 CR9         0.0262
      7 C6          8.7640    2.8120   25.1330 C.ar      1 CR9        -0.0573
      8 C7          8.4260    0.3820   25.3370 C.cat     1 CR9         0.2298
      9 N1          8.1470    0.4560   26.6070 N.pl3     1 CR9        -0.2736
     10 N2          8.1560   -0.7490   24.7410 N.pl3     1 CR9        -0.2736
     11 N3         10.5870    4.7790   23.0070 N.pl3     1 CR9        -0.2528
     12 N4          9.2530    5.1110   24.7770 N.2       1 CR9        -0.3131
     13 C8         10.0320    5.6180   23.8310 C.2       1 CR9         0.1320
     14 C1'        10.2680    7.0030   23.7360 C.ar      1 CR9         0.0560
     15 C2'         9.8850    7.8860   24.7700 C.ar      1 CR9        -0.0630
     16 C3'        10.1310    9.2490   24.7030 C.ar      1 CR9        -0.0763
     17 C4'        10.7630    9.7800   23.5950 C.ar      1 CR9        -0.0370
     18 C5'        11.1590    8.9310   22.5420 C.ar      1 CR9         0.1263
     19 C6'        10.9110    7.5780   22.6150 C.ar      1 CR9         0.1378
     20 O6'        11.3330    6.8450   21.5280 O.3       1 CR9        -0.3303
     21 O5'        11.8250    9.3430   21.3970 O.3       1 CR9        -0.3172
     22 C1''       12.1860   11.6150   20.7560 C.3       1 CR9        -0.0136
     23 C2''       13.0180   11.7970   19.4910 C.3       1 CR9        -0.0478
     24 C3''       14.4610   12.1430   19.8460 C.3       1 CR9        -0.0526
     25 C4''       14.9590   11.3970   21.0940 C.3       1 CR9        -0.0504
     26 C5''       14.1580   10.0860   21.2660 C.3       1 CR9        -0.0224
     27 C6''       12.7110   10.4360   21.5990 C.3       1 CR9         0.0813
     28 C1A        10.7240   11.3220   20.3660 C.3       1 CR9        -0.0597
     29 H1         11.0995    2.2944   22.0331 H         1 CR9         0.0524
     30 H2          8.1208    3.0030   25.9844 H         1 CR9         0.0543
     31 H3          7.7272   -0.3511   27.0899 H         1 CR9         0.3179
     32 H4          8.3462    1.3216   27.1285 H         1 CR9         0.3179
     33 H5          8.3563   -0.8628   23.7371 H         1 CR9         0.3179
     34 H6          7.7428   -1.5268   25.2751 H         1 CR9         0.3179
     35 H7         11.2154    4.9873   22.2179 H         1 CR9         0.2290
     36 H8          9.3830    7.4855   25.6433 H         1 CR9         0.0538
     37 H9          9.8282    9.8964   25.5180 H         1 CR9         0.0510
     38 H10        10.9535   10.8455   23.5358 H         1 CR9         0.0543
     39 H11        11.1222    5.9288   21.6642 H         1 CR9         0.2480
     40 H12        12.2316   12.5376   21.3532 H         1 CR9         0.0327
     41 H13        12.5882   12.6111   18.8889 H         1 CR9         0.0269
     42 H14        13.0021   10.8633   18.9097 H         1 CR9         0.0269
     43 H15        14.5280   13.2250   20.0325 H         1 CR9         0.0265
     44 H16        15.1063   11.8768   18.9959 H         1 CR9         0.0265
     45 H17        14.8177   12.0318   21.9812 H         1 CR9         0.0266
     46 H18        16.0272   11.1612   20.9781 H         1 CR9         0.0266
     47 H19        14.5923    9.4915   22.0833 H         1 CR9         0.0294
     48 H20        14.1928    9.5059   20.3321 H         1 CR9         0.0294
     49 H21        12.6756   10.7220   22.6606 H         1 CR9         0.0648
     50 H22        10.3316   12.1540   19.7629 H         1 CR9         0.0233
     51 H23        10.1168   11.2110   21.2765 H         1 CR9         0.0233
     52 H24        10.6801   10.3920   19.7803 H         1 CR9         0.0233
@<TRIPOS>BOND
     1    1    2 ar 
     2    7    1 ar 
     3    1    8 1  
     4    2    3 1  
     5    4    2 ar 
     6    5    4 ar 
     7    6    5 ar 
     8   11    5 1  
     9    6    7 ar 
    10   12    6 1  
    11    8    9 ar 
    12    8   10 ar 
    13   13   11 1  
    14   13   12 2  
    15   14   13 1  
    16   14   15 ar 
    17   19   14 ar 
    18   16   15 ar 
    19   17   16 ar 
    20   18   17 ar 
    21   18   19 ar 
    22   21   18 1  
    23   19   20 1  
    24   27   21 1  
    25   22   23 1  
    26   22   27 1  
    27   22   28 1  
    28   23   24 1  
    29   24   25 1  
    30   25   26 1  
    31   26   27 1  
    32    4   29 1  
    33    7   30 1  
    34    9   31 1  
    35    9   32 1  
    36   10   33 1  
    37   10   34 1  
    38   11   35 1  
    39   15   36 1  
    40   16   37 1  
    41   17   38 1  
    42   20   39 1  
    43   22   40 1  
    44   23   41 1  
    45   23   42 1  
    46   24   43 1  
    47   24   44 1  
    48   25   45 1  
    49   25   46 1  
    50   26   47 1  
    51   26   48 1  
    52   27   49 1  
    53   28   50 1  
    54   28   51 1  
    55   28   52 1  
@<TRIPOS>SUBSTRUCTURE
     1 CR9         1

