### 
### Created by X-TOOL on Mon Sep 10 21:12:51 2018
### 

@<TRIPOS>MOLECULE
1o5e_ligand
   43    46     1     0     0
SMALL
GAST_HUCK


@<TRIPOS>ATOM
      1 C1         16.2360   -6.7590   25.1990 C.ar      1 132         0.0219
      2 C2         14.9550   -6.0960   24.9820 C.ar      1 132         0.0303
      3 C3         14.5530   -5.0590   25.8430 C.ar      1 132        -0.0299
      4 C4         15.4290   -4.7470   26.8720 C.ar      1 132         0.0630
      5 C5         16.6010   -5.3500   27.0870 C.ar      1 132        -0.0267
      6 C6         17.0170   -6.3370   26.2690 C.ar      1 132        -0.0694
      7 C7         16.7520   -7.7960   24.4310 C.cat     1 132         0.2289
      8 N1         17.9970   -8.1410   24.4950 N.pl3     1 132        -0.2733
      9 N2         15.9630   -8.4220   23.6370 N.pl3     1 132        -0.2733
     10 N3         15.3130   -3.8600   27.8410 N.pl3     1 132        -0.2761
     11 C9         17.1700   -4.8250   28.1650 C.2       1 132        -0.0575
     12 C8         16.3550   -3.8520   28.6810 C.2       1 132         0.0607
     13 C1'        16.4660   -3.0320   29.8300 C.ar      1 132         0.0382
     14 C2'        17.5220   -3.2740   30.7300 C.ar      1 132        -0.0590
     15 C3'        17.6860   -2.5520   31.8820 C.ar      1 132        -0.0712
     16 C4'        16.7850   -1.5420   32.1780 C.ar      1 132        -0.0615
     17 C5'        15.7020   -1.2250   31.3350 C.ar      1 132         0.0146
     18 C6'        15.5690   -2.0000   30.1640 C.ar      1 132         0.1121
     19 O6'        14.5140   -1.7840   29.3030 O.3       1 132        -0.3266
     20 C20        14.8470   -0.1540   31.6900 C.ar      1 132        -0.0215
     21 C21        14.2990   -0.0390   32.9760 C.ar      1 132        -0.0570
     22 C22        13.4760    1.0430   33.3570 C.ar      1 132        -0.0632
     23 C23        13.1950    2.0280   32.4510 C.ar      1 132        -0.0635
     24 C24        13.7230    1.9370   31.1700 C.ar      1 132        -0.0632
     25 C25        14.5310    0.8720   30.7970 C.ar      1 132        -0.0570
     26 CL2        13.7470   -6.5600   23.7390 Cl        1 132        -0.0800
     27 H1         13.6137   -4.5345   25.7101 H         1 132         0.0545
     28 H2         17.9760   -6.8095   26.4482 H         1 132         0.0531
     29 H3         18.3477   -8.9144   23.9121 H         1 132         0.3180
     30 H4         18.6377   -7.6423   25.1289 H         1 132         0.3180
     31 H5         14.9702   -8.1536   23.5800 H         1 132         0.3180
     32 H6         16.3221   -9.1932   23.0563 H         1 132         0.3180
     33 H7         14.5005   -3.2349   27.9415 H         1 132         0.2230
     34 H8         18.1342   -5.1214   28.5754 H         1 132         0.0296
     35 H9         18.2315   -4.0613   30.5022 H         1 132         0.0593
     36 H10        18.5095   -2.7678   32.5531 H         1 132         0.0530
     37 H11        16.9184   -0.9748   33.0921 H         1 132         0.0593
     38 H12        14.5753   -2.3868   28.5713 H         1 132         0.2521
     39 H13        14.5158   -0.8108   33.7056 H         1 132         0.0606
     40 H14        13.0697    1.0926   34.3607 H         1 132         0.0613
     41 H15        12.5688    2.8681   32.7290 H         1 132         0.0603
     42 H16        13.4997    2.7131   30.4470 H         1 132         0.0613
     43 H17        14.9263    0.8358   29.7883 H         1 132         0.0606
@<TRIPOS>BOND
     1    1    2 ar 
     2    1    6 ar 
     3    1    7 1  
     4    2    3 ar 
     5    2   26 1  
     6    3    4 ar 
     7    4    5 ar 
     8    4   10 1  
     9    5    6 ar 
    10    5   11 1  
    11    7    8 ar 
    12    7    9 ar 
    13   10   12 1  
    14   11   12 2  
    15   12   13 1  
    16   13   14 ar 
    17   13   18 ar 
    18   14   15 ar 
    19   15   16 ar 
    20   16   17 ar 
    21   17   18 ar 
    22   17   20 1  
    23   18   19 1  
    24   20   21 ar 
    25   20   25 ar 
    26   21   22 ar 
    27   22   23 ar 
    28   23   24 ar 
    29   24   25 ar 
    30    3   27 1  
    31    6   28 1  
    32    8   29 1  
    33    8   30 1  
    34    9   31 1  
    35    9   32 1  
    36   10   33 1  
    37   11   34 1  
    38   14   35 1  
    39   15   36 1  
    40   16   37 1  
    41   19   38 1  
    42   21   39 1  
    43   22   40 1  
    44   23   41 1  
    45   24   42 1  
    46   25   43 1  
@<TRIPOS>SUBSTRUCTURE
     1 132         1

