### 
### Created by X-TOOL on Mon Sep 10 21:12:51 2018
### 

@<TRIPOS>MOLECULE
1o5f_ligand
   52    55     1     0     0
SMALL
GAST_HUCK


@<TRIPOS>ATOM
      1 C1         16.3690   -6.1780   25.3860 C.ar      1 CR9         0.0450
      2 C2         15.4850   -5.1350   24.8890 C.ar      1 CR9         0.1246
      3 F2         15.0230   -5.1330   23.6260 F         1 CR9        -0.1907
      4 C3         15.0810   -4.0570   25.6650 C.ar      1 CR9        -0.0071
      5 C4         15.5690   -4.0300   26.9250 C.ar      1 CR9         0.0786
      6 C5         16.3940   -4.9650   27.4370 C.ar      1 CR9         0.0262
      7 C6         16.8210   -6.0480   26.7190 C.ar      1 CR9        -0.0573
      8 C7         16.7570   -7.2920   24.5990 C.cat     1 CR9         0.2298
      9 N1         17.8610   -7.9480   24.8430 N.pl3     1 CR9        -0.2736
     10 N2         16.0220   -7.7060   23.5950 N.pl3     1 CR9        -0.2736
     11 N3         15.3600   -3.1730   27.8500 N.pl3     1 CR9        -0.2528
     12 N4         16.7320   -4.7190   28.6870 N.2       1 CR9        -0.3131
     13 C8         16.0550   -3.5960   28.8610 C.2       1 CR9         0.1320
     14 C1'        16.1060   -2.8990   30.0850 C.ar      1 CR9         0.0560
     15 C2'        17.0520   -3.2260   31.0720 C.ar      1 CR9        -0.0630
     16 C3'        17.1080   -2.5440   32.2760 C.ar      1 CR9        -0.0763
     17 C4'        16.2160   -1.5070   32.5450 C.ar      1 CR9        -0.0370
     18 C5'        15.2550   -1.1490   31.5860 C.ar      1 CR9         0.1263
     19 C6'        15.2130   -1.8420   30.3820 C.ar      1 CR9         0.1378
     20 O6'        14.2640   -1.4530   29.4750 O.3       1 CR9        -0.3303
     21 O5'        14.3110   -0.1430   31.7690 O.3       1 CR9        -0.3172
     22 C1''       13.9530    0.8320   34.0290 C.3       1 CR9        -0.0136
     23 C2''       12.6090    1.5620   34.0070 C.3       1 CR9        -0.0478
     24 C3''       12.8220    3.0780   33.8490 C.3       1 CR9        -0.0526
     25 C4''       13.9670    3.4040   32.8920 C.3       1 CR9        -0.0504
     26 C5''       14.1680    2.2590   31.8920 C.3       1 CR9        -0.0224
     27 C6''       14.6430    0.9610   32.6050 C.3       1 CR9         0.0813
     28 C1A        13.7090   -0.6540   34.4020 C.3       1 CR9        -0.0597
     29 H1         14.4181   -3.2879   25.2854 H         1 CR9         0.0524
     30 H2         17.4851   -6.7835   27.1584 H         1 CR9         0.0543
     31 H3         18.1213   -8.7541   24.2570 H         1 CR9         0.3179
     32 H4         18.4706   -7.6588   25.6212 H         1 CR9         0.3179
     33 H5         15.1434   -7.2200   23.3651 H         1 CR9         0.3179
     34 H6         16.3233   -8.5172   23.0363 H         1 CR9         0.3179
     35 H7         14.7691   -2.3307   27.8032 H         1 CR9         0.2290
     36 H8         17.7541   -4.0308   30.8864 H         1 CR9         0.0538
     37 H9         17.8516   -2.8188   33.0154 H         1 CR9         0.0510
     38 H10        16.2641   -0.9792   33.4906 H         1 CR9         0.0543
     39 H11        13.4008   -1.5533   29.8588 H         1 CR9         0.2480
     40 H12        14.6065    1.2900   34.7861 H         1 CR9         0.0327
     41 H13        12.0759    1.3676   34.9493 H         1 CR9         0.0269
     42 H14        12.0091    1.1908   33.1630 H         1 CR9         0.0269
     43 H15        13.0515    3.5080   34.8351 H         1 CR9         0.0265
     44 H16        11.8964    3.5269   33.4596 H         1 CR9         0.0265
     45 H17        14.8923    3.5482   33.4691 H         1 CR9         0.0266
     46 H18        13.7295    4.3273   32.3433 H         1 CR9         0.0266
     47 H19        14.9248    2.5585   31.1521 H         1 CR9         0.0294
     48 H20        13.2148    2.0584   31.3810 H         1 CR9         0.0294
     49 H21        15.7338    0.9968   32.7421 H         1 CR9         0.0648
     50 H22        13.2311   -0.7100   35.3912 H         1 CR9         0.0233
     51 H23        14.6703   -1.1880   34.4284 H         1 CR9         0.0233
     52 H24        13.0525   -1.1176   33.6509 H         1 CR9         0.0233
@<TRIPOS>BOND
     1    1    2 ar 
     2    7    1 ar 
     3    1    8 1  
     4    2    3 1  
     5    4    2 ar 
     6    5    4 ar 
     7    4   29 1  
     8    6    5 ar 
     9   11    5 1  
    10    6    7 ar 
    11   12    6 1  
    12    7   30 1  
    13    8    9 ar 
    14    8   10 ar 
    15    9   31 1  
    16    9   32 1  
    17   10   33 1  
    18   10   34 1  
    19   13   11 1  
    20   11   35 1  
    21   13   12 2  
    22   14   13 1  
    23   14   15 ar 
    24   19   14 ar 
    25   16   15 ar 
    26   15   36 1  
    27   17   16 ar 
    28   16   37 1  
    29   18   17 ar 
    30   17   38 1  
    31   18   19 ar 
    32   21   18 1  
    33   19   20 1  
    34   27   21 1  
    35   22   23 1  
    36   22   27 1  
    37   22   28 1  
    38   20   39 1  
    39   23   24 1  
    40   22   40 1  
    41   23   41 1  
    42   24   25 1  
    43   23   42 1  
    44   24   43 1  
    45   25   26 1  
    46   24   44 1  
    47   25   45 1  
    48   26   27 1  
    49   25   46 1  
    50   26   47 1  
    51   26   48 1  
    52   27   49 1  
    53   28   50 1  
    54   28   51 1  
    55   28   52 1  
@<TRIPOS>SUBSTRUCTURE
     1 CR9         1

