### 
### Created by X-TOOL on Mon Sep 10 21:12:51 2018
### 

@<TRIPOS>MOLECULE
1o5g_ligand
   52    55     1     0     0
SMALL
GAST_HUCK


@<TRIPOS>ATOM
      1 C1         11.8230  -11.7600   22.8690 C.ar      1 CR9         0.0450
      2 C2         12.4000  -10.5120   22.4960 C.ar      1 CR9         0.1246
      3 F2         12.1890   -9.3710   23.2090 F         1 CR9        -0.1907
      4 C3         13.2330  -10.3900   21.3930 C.ar      1 CR9        -0.0071
      5 C4         13.4890  -11.5140   20.6660 C.ar      1 CR9         0.0786
      6 C5         12.9610  -12.7310   20.9770 C.ar      1 CR9         0.0262
      7 C6         12.1200  -12.8870   22.0800 C.ar      1 CR9        -0.0573
      8 C7         10.9690  -11.8780   23.9930 C.cat     1 CR9         0.2298
      9 N1         10.3460  -13.0050   24.2180 N.pl3     1 CR9        -0.2736
     10 N2         10.7760  -10.8740   24.8380 N.pl3     1 CR9        -0.2736
     11 N3         14.2140  -11.7010   19.6210 N.pl3     1 CR9        -0.2528
     12 N4         13.3450  -13.6740   20.1400 N.2       1 CR9        -0.3131
     13 C8         14.1280  -12.9760   19.3080 C.2       1 CR9         0.1320
     14 C1'        14.8170  -13.5360   18.2150 C.ar      1 CR9         0.0560
     15 C2'        14.7180  -14.9040   17.9350 C.ar      1 CR9        -0.0630
     16 C3'        15.4060  -15.4600   16.8640 C.ar      1 CR9        -0.0763
     17 C4'        16.1950  -14.6660   16.0530 C.ar      1 CR9        -0.0370
     18 C5'        16.3190  -13.2970   16.3040 C.ar      1 CR9         0.1263
     19 C6'        15.6230  -12.7270   17.3890 C.ar      1 CR9         0.1378
     20 O6'        15.7140  -11.3680   17.6510 O.3       1 CR9        -0.3303
     21 O5'        17.1190  -12.5060   15.4870 O.3       1 CR9        -0.3172
     22 C1''       18.3140  -12.2050   13.3370 C.3       1 CR9        -0.0136
     23 C2''       19.3120  -11.0340   13.2760 C.3       1 CR9        -0.0478
     24 C3''       20.7350  -11.5510   13.5690 C.3       1 CR9        -0.0526
     25 C4''       20.7700  -12.5380   14.8000 C.3       1 CR9        -0.0504
     26 C5''       19.4830  -12.4310   15.6530 C.3       1 CR9        -0.0224
     27 C6''       18.3040  -12.8950   14.7810 C.3       1 CR9         0.0813
     28 C1A        16.9210  -11.6870   12.9290 C.3       1 CR9        -0.0597
     29 H1         13.6650   -9.4342   21.1192 H         1 CR9         0.0524
     30 H2         11.7036  -13.8576   22.3242 H         1 CR9         0.0543
     31 H3          9.7240  -13.0956   25.0340 H         1 CR9         0.3179
     32 H4         10.4771  -13.8024   23.5793 H         1 CR9         0.3179
     33 H5         11.2535   -9.9741   24.6862 H         1 CR9         0.3179
     34 H6         10.1486  -10.9943   25.6460 H         1 CR9         0.3179
     35 H7         14.7609  -10.9853   19.1214 H         1 CR9         0.2290
     36 H8         14.0980  -15.5360   18.5605 H         1 CR9         0.0538
     37 H9         15.3237  -16.5221   16.6632 H         1 CR9         0.0510
     38 H10        16.7218  -15.1089   15.2155 H         1 CR9         0.0543
     39 H11        15.1858  -11.1573   18.4120 H         1 CR9         0.2480
     40 H12        18.6263  -12.9652   12.6059 H         1 CR9         0.0327
     41 H13        19.0356  -10.2781   14.0258 H         1 CR9         0.0269
     42 H14        19.2858  -10.5826   12.2732 H         1 CR9         0.0269
     43 H15        21.3864  -10.6915   13.7857 H         1 CR9         0.0265
     44 H16        21.1095  -12.0801   12.6803 H         1 CR9         0.0265
     45 H17        21.6373  -12.2920   15.4302 H         1 CR9         0.0266
     46 H18        20.8672  -13.5688   14.4284 H         1 CR9         0.0266
     47 H19        19.3282  -11.3886   15.9684 H         1 CR9         0.0294
     48 H20        19.5678  -13.0742   16.5413 H         1 CR9         0.0294
     49 H21        18.3368  -13.9877   14.6591 H         1 CR9         0.0648
     50 H22        16.9795  -11.2232   11.9333 H         1 CR9         0.0233
     51 H23        16.5781  -10.9412   13.6613 H         1 CR9         0.0233
     52 H24        16.2112  -12.5268   12.9011 H         1 CR9         0.0233
@<TRIPOS>BOND
     1    1    2 ar 
     2    7    1 ar 
     3    1    8 1  
     4    2    3 1  
     5    4    2 ar 
     6    5    4 ar 
     7    6    5 ar 
     8   11    5 1  
     9    6    7 ar 
    10   12    6 1  
    11    8    9 ar 
    12    8   10 ar 
    13   13   11 1  
    14   13   12 2  
    15   14   13 1  
    16   14   15 ar 
    17   19   14 ar 
    18   16   15 ar 
    19   17   16 ar 
    20   18   17 ar 
    21   18   19 ar 
    22   21   18 1  
    23   19   20 1  
    24   27   21 1  
    25   22   23 1  
    26   22   27 1  
    27   22   28 1  
    28   23   24 1  
    29   24   25 1  
    30   25   26 1  
    31   26   27 1  
    32    4   29 1  
    33    7   30 1  
    34    9   31 1  
    35    9   32 1  
    36   10   33 1  
    37   10   34 1  
    38   11   35 1  
    39   15   36 1  
    40   16   37 1  
    41   17   38 1  
    42   20   39 1  
    43   22   40 1  
    44   23   41 1  
    45   23   42 1  
    46   24   43 1  
    47   24   44 1  
    48   25   45 1  
    49   25   46 1  
    50   26   47 1  
    51   26   48 1  
    52   27   49 1  
    53   28   50 1  
    54   28   51 1  
    55   28   52 1  
@<TRIPOS>SUBSTRUCTURE
     1 CR9         1

