### 
### Created by X-TOOL on Mon Sep 10 21:12:49 2018
### 

@<TRIPOS>MOLECULE
1o5m_ligand
   67    71     1     0     0
SMALL
GAST_HUCK


@<TRIPOS>ATOM
      1 C1        187.0850  131.7040   33.5950 C.3       1 336         0.0344
      2 C4        186.5480  129.3030   32.9650 C.3       1 336        -0.0143
      3 C6        185.5670  129.2750   34.1290 C.3       1 336        -0.0257
      4 C9        185.9990  130.1840   35.2580 C.3       1 336         0.0344
      5 N12       186.2300  131.5440   34.7780 N.am      1 336        -0.2732
      6 C13       186.7040  130.7330   32.4780 C.3       1 336        -0.0257
      7 CL16      182.9210  123.6340   33.6710 Cl        1 336        -0.0779
      8 C17       189.3290  126.9440   30.2190 C.ar      1 336        -0.0375
      9 C19       183.8560  124.9740   33.1350 C.ar      1 336         0.0294
     10 C20       185.2100  125.0900   33.4790 C.ar      1 336        -0.0496
     11 C22       187.3990  126.3340   33.4020 C.3       1 336        -0.0107
     12 C25       188.2570  125.9940   32.2370 C.3       1 336        -0.0057
     13 C28       183.9730  127.0570   31.9000 C.ar      1 336         0.0106
     14 C29       189.4490  127.8370   29.1540 C.ar      1 336         0.0266
     15 C30       188.4800  128.8380   29.0030 C.ar      1 336         0.0055
     16 N32       187.4640  128.9310   29.8640 N.ar      1 336        -0.3002
     17 C33       186.1110  128.3570   31.7660 C.3       1 336         0.0419
     18 C35       183.2440  125.9510   32.3480 C.ar      1 336        -0.0515
     19 BR37      190.9020  127.6770   27.9550 Br        1 336        -0.0482
     20 BR38      183.0970  128.3630   30.8380 Br        1 336        -0.0577
     21 C39       187.3140  128.0810   30.9040 C.ar      1 336         0.0465
     22 C40       185.3350  127.1790   32.2400 C.ar      1 336        -0.0147
     23 C41       188.2680  127.0420   31.1220 C.ar      1 336        -0.0068
     24 C42       185.9430  126.1930   33.0310 C.ar      1 336        -0.0332
     25 C43       185.6190  136.4690   35.1620 C.3       1 336        -0.0278
     26 C46       185.5270  137.5850   36.2030 C.3       1 336         0.0346
     27 C49       185.7850  135.0940   35.8090 C.3       1 336        -0.0205
     28 C51       186.8820  135.0780   36.8700 C.3       1 336        -0.0278
     29 N54       186.6240  137.4630   37.1640 N.am      1 336        -0.2596
     30 C55       187.5070  138.4670   37.3900 C.2       1 336         0.2573
     31 N56       188.4200  138.1080   38.3050 N.am      1 336        -0.2869
     32 O57       187.5000  139.5720   36.8480 O.2       1 336        -0.4008
     33 C58       186.7260  136.1870   37.8620 C.3       1 336         0.0346
     34 C61       185.9960  133.9640   34.8060 C.3       1 336         0.0404
     35 O64       184.9540  132.5040   36.3980 O.2       1 336        -0.3969
     36 C65       185.6730  132.5960   35.4100 C.2       1 336         0.1787
     37 H1        188.1301  131.5198   33.8845 H         1 336         0.0522
     38 H2        186.9842  132.7333   33.2205 H         1 336         0.0522
     39 H3        187.5229  128.9507   33.3331 H         1 336         0.0350
     40 H4        185.4971  128.2453   34.5095 H         1 336         0.0291
     41 H5        184.5799  129.6008   33.7691 H         1 336         0.0291
     42 H6        186.9296  129.7948   35.6967 H         1 336         0.0522
     43 H7        185.2115  130.2028   36.0257 H         1 336         0.0522
     44 H8        187.4895  130.7578   31.7084 H         1 336         0.0291
     45 H9        185.7500  131.0601   32.0389 H         1 336         0.0291
     46 H10       190.0697  126.1630   30.3475 H         1 336         0.0679
     47 H11       185.6854  124.3297   34.0882 H         1 336         0.0567
     48 H12       187.5974  127.3712   33.7098 H         1 336         0.0435
     49 H13       187.6299  125.6537   34.2350 H         1 336         0.0435
     50 H14       187.8970  125.0455   31.8118 H         1 336         0.0448
     51 H15       189.2885  125.8664   32.5971 H         1 336         0.0448
     52 H16       188.5559  129.5414   28.1817 H         1 336         0.0769
     53 H17       185.4142  128.9327   31.1392 H         1 336         0.0636
     54 H18       182.1977  125.8518   32.0826 H         1 336         0.0575
     55 H19       186.4841  136.6616   34.5105 H         1 336         0.0289
     56 H20       184.6989  136.4689   34.5592 H         1 336         0.0289
     57 H21       184.5668  137.5096   36.7344 H         1 336         0.0519
     58 H22       185.5912  138.5603   35.6985 H         1 336         0.0519
     59 H23       184.8378  134.8818   36.3264 H         1 336         0.0326
     60 H24       187.8574  135.1826   36.3725 H         1 336         0.0289
     61 H25       186.8440  134.1172   37.4042 H         1 336         0.0289
     62 H26       189.1379  138.7502   38.5737 H         1 336         0.1808
     63 H27       188.3826  137.1982   38.7184 H         1 336         0.1808
     64 H28       187.5997  136.2050   38.5301 H         1 336         0.0519
     65 H29       185.8144  136.0212   38.4549 H         1 336         0.0519
     66 H30       187.0466  133.9695   34.4801 H         1 336         0.0505
     67 H31       185.3419  134.1326   33.9378 H         1 336         0.0505
@<TRIPOS>BOND
     1    5    1 1  
     2    1    6 1  
     3    3    2 1  
     4    6    2 1  
     5    2   17 1  
     6    4    3 1  
     7    5    4 1  
     8   36    5 am 
     9    9    7 1  
    10    8   14 ar 
    11   23    8 ar 
    12   10    9 ar 
    13   18    9 ar 
    14   24   10 ar 
    15   11   12 1  
    16   24   11 1  
    17   23   12 1  
    18   13   18 ar 
    19   13   20 1  
    20   22   13 ar 
    21   15   14 ar 
    22   14   19 1  
    23   16   15 ar 
    24   21   16 ar 
    25   17   21 1  
    26   17   22 1  
    27   21   23 ar 
    28   22   24 ar 
    29   25   26 1  
    30   27   25 1  
    31   26   29 1  
    32   27   28 1  
    33   34   27 1  
    34   28   33 1  
    35   29   30 am 
    36   33   29 1  
    37   30   31 am 
    38   30   32 2  
    39   34   36 1  
    40   36   35 2  
    41    1   37 1  
    42    1   38 1  
    43    2   39 1  
    44    3   40 1  
    45    3   41 1  
    46    4   42 1  
    47    4   43 1  
    48    6   44 1  
    49    6   45 1  
    50    8   46 1  
    51   10   47 1  
    52   11   48 1  
    53   11   49 1  
    54   12   50 1  
    55   12   51 1  
    56   15   52 1  
    57   17   53 1  
    58   18   54 1  
    59   25   55 1  
    60   25   56 1  
    61   26   57 1  
    62   26   58 1  
    63   27   59 1  
    64   28   60 1  
    65   28   61 1  
    66   31   62 1  
    67   31   63 1  
    68   33   64 1  
    69   33   65 1  
    70   34   66 1  
    71   34   67 1  
@<TRIPOS>SUBSTRUCTURE
     1 336         1

