### 
### Created by X-TOOL on Mon Sep 10 21:12:52 2018
### 

@<TRIPOS>MOLECULE
1o5r_ligand
   59    62     1     0     0
SMALL
GAST_HUCK


@<TRIPOS>ATOM
      1 C1         51.9840   54.5140   20.7520 C.2       1 FR9         0.0642
      2 N2         52.0530   55.5750   21.7700 N.pl3     1 FR9        -0.2369
      3 C3         51.7930   54.9070   22.8850 C.2       1 FR9         0.1035
      4 N4         51.6380   53.6160   22.7630 N.2       1 FR9        -0.3095
      5 C5         51.7660   53.3080   21.3420 C.2       1 FR9         0.0902
      6 C8         51.7380   51.9640   20.7950 C.2       1 FR9         0.1892
      7 O9         51.9080   51.9200   19.6970 O.2       1 FR9        -0.3981
      8 N10        51.4150   51.0140   21.5230 N.am      1 FR9        -0.3040
      9 C13        52.0850   57.0330   21.6130 C.3       1 FR9         0.0975
     10 C14        53.5120   57.6680   21.6270 C.3       1 FR9         0.0758
     11 O15        54.5430   57.4310   22.6980 O.3       1 FR9        -0.3918
     12 C18        51.3820   57.4530   20.3350 C.3       1 FR9         0.0073
     13 C19        49.8710   57.5460   20.5300 C.3       1 FR9         0.0529
     14 N22        49.2310   57.6440   19.2360 N.pl3     1 FR9        -0.2727
     15 C27        48.7350   58.8100   18.7000 C.2       1 FR9         0.0168
     16 C28        48.2680   58.5680   17.4420 C.2       1 FR9        -0.0726
     17 C29        48.4750   57.1790   17.2260 C.ar      1 FR9        -0.0394
     18 C30        49.0830   56.6520   18.3890 C.ar      1 FR9         0.0516
     19 C31        48.1540   56.3370   16.1950 C.ar      1 FR9        -0.0828
     20 C32        48.4460   54.9760   16.2970 C.ar      1 FR9        -0.0539
     21 C33        49.0830   54.5020   17.4470 C.ar      1 FR9         0.0534
     22 C34        49.3700   55.3570   18.4790 C.ar      1 FR9        -0.0251
     23 N1         49.3130   53.2450   17.7210 N.am      1 FR9        -0.2248
     24 C2         49.2560   52.2020   16.8530 C.2       1 FR9         0.2876
     25 O1         48.7460   52.3280   15.7660 O.2       1 FR9        -0.3908
     26 N3         49.5190   51.0810   17.4430 N.am      1 FR9        -0.2568
     27 C6         49.2960   49.8220   16.7820 C.3       1 FR9         0.0653
     28 C7         47.7260   49.3490   18.7000 C.ar      1 FR9        -0.0584
     29 C11        48.0320   49.2190   17.3550 C.ar      1 FR9        -0.0212
     30 C9         47.1680   48.5140   16.5360 C.ar      1 FR9        -0.0584
     31 C12        45.9940   47.9860   17.0600 C.ar      1 FR9        -0.0685
     32 C10        45.6590   48.1380   18.4150 C.ar      1 FR9        -0.0687
     33 C15        46.5700   48.7720   19.2010 C.ar      1 FR9        -0.0685
     34 H1         52.0920   54.6720   19.6799 H         1 FR9         0.0990
     35 H2         51.7131   55.4069   23.8492 H         1 FR9         0.1238
     36 H3         51.3935   50.0852   21.1529 H         1 FR9         0.1799
     37 H4         51.1760   51.1764   22.4803 H         1 FR9         0.1799
     38 H5         51.5307   57.4571   22.4633 H         1 FR9         0.0690
     39 H6         53.3511   58.7560   21.6079 H         1 FR9         0.0589
     40 H7         53.9855   57.3507   20.6862 H         1 FR9         0.0589
     41 H8         54.7476   56.5043   22.7395 H         1 FR9         0.2095
     42 H9         51.5958   56.7127   19.5500 H         1 FR9         0.0323
     43 H10        51.7632   58.4371   20.0246 H         1 FR9         0.0323
     44 H11        49.6311   58.4376   21.1279 H         1 FR9         0.0599
     45 H12        49.5110   56.6469   21.0516 H         1 FR9         0.0599
     46 H13        48.7180   59.7761   19.2024 H         1 FR9         0.0873
     47 H14        47.8299   59.2861   16.7504 H         1 FR9         0.0266
     48 H15        47.6752   56.7258   15.3035 H         1 FR9         0.0519
     49 H16        48.1823   54.2959   15.4951 H         1 FR9         0.0440
     50 H17        49.8364   54.9729   19.3790 H         1 FR9         0.0396
     51 H18        49.5559   53.0290   18.6667 H         1 FR9         0.2237
     52 H19        49.8834   51.0894   18.3742 H         1 FR9         0.1879
     53 H20        50.1471   49.1486   16.9616 H         1 FR9         0.0681
     54 H21        49.1774   49.9826   15.7003 H         1 FR9         0.0681
     55 H22        48.3883   49.9000   19.3579 H         1 FR9         0.0557
     56 H23        47.4062   48.3738   15.4878 H         1 FR9         0.0557
     57 H24        45.3204   47.4435   16.4065 H         1 FR9         0.0599
     58 H25        44.7215   47.7686   18.8145 H         1 FR9         0.0559
     59 H26        46.3834   48.8285   20.2673 H         1 FR9         0.0599
@<TRIPOS>BOND
     1    1    2 1  
     2    1    5 2  
     3    2    3 1  
     4    2    9 1  
     5    3    4 2  
     6    4    5 1  
     7    5    6 1  
     8    6    7 2  
     9    6    8 am 
    10    9   10 1  
    11    9   12 1  
    12   10   11 1  
    13   12   13 1  
    14   13   14 1  
    15   14   15 1  
    16   14   18 1  
    17   15   16 2  
    18   16   17 1  
    19   17   18 ar 
    20   17   19 ar 
    21   18   22 ar 
    22   19   20 ar 
    23   20   21 ar 
    24   21   22 ar 
    25   21   23 1  
    26   23   24 am 
    27   24   25 2  
    28   24   26 am 
    29   26   27 1  
    30   27   29 1  
    31   29   28 ar 
    32   28   33 ar 
    33   29   30 ar 
    34   30   31 ar 
    35   31   32 ar 
    36   32   33 ar 
    37    1   34 1  
    38    3   35 1  
    39    8   36 1  
    40    8   37 1  
    41    9   38 1  
    42   10   39 1  
    43   10   40 1  
    44   11   41 1  
    45   12   42 1  
    46   12   43 1  
    47   13   44 1  
    48   13   45 1  
    49   15   46 1  
    50   16   47 1  
    51   19   48 1  
    52   20   49 1  
    53   22   50 1  
    54   23   51 1  
    55   26   52 1  
    56   27   53 1  
    57   27   54 1  
    58   28   55 1  
    59   30   56 1  
    60   31   57 1  
    61   32   58 1  
    62   33   59 1  
@<TRIPOS>SUBSTRUCTURE
     1 FR9         1

