### 
### Created by X-TOOL on Mon Sep 10 21:12:49 2018
### 

@<TRIPOS>MOLECULE
1o6h_ligand
   59    61     1     0     0
SMALL
GAST_HUCK


@<TRIPOS>ATOM
      1 C3A        63.4410   69.1800   58.4770 C.2       1 W37        -0.1125
      2 C2A        62.3480   69.9280   58.7130 C.2       1 W37        -0.0447
      3 C1A        61.8000   70.1160   60.1100 C.3       1 W37        -0.0043
      4 N1         62.3770   71.2880   60.8040 N.4       1 W37         0.2462
      5 C1B        63.4980   70.8530   61.6670 C.3       1 W37        -0.0305
      6 C2B        63.0880   69.9340   62.8220 C.3       1 W37        -0.0125
      7 C3B        64.1370   70.0940   63.9100 C.3       1 W37        -0.0482
      8 C4B        63.4330   70.4590   65.2150 C.3       1 W37        -0.0504
      9 C5B        63.6670   69.3460   66.2610 C.3       1 W37        -0.0249
     10 C6B        64.9210   69.6710   67.0850 C.3       1 W37         0.0717
     11 O          64.6670   70.7820   67.9520 O.3       1 W37        -0.3144
     12 C3C        68.8360   69.6140   72.3640 C.ar      1 W37         0.0012
     13 C6C        65.6580   71.0550   68.8950 C.ar      1 W37         0.0979
     14 C4C        67.8300   69.2930   71.4180 C.ar      1 W37        -0.0383
     15 C7C        66.0810   72.3970   69.0690 C.ar      1 W37        -0.0220
     16 C8C        67.0840   72.7270   70.0140 C.ar      1 W37        -0.0476
     17 N2C        69.2380   70.9190   72.5150 N.ar      1 W37        -0.2984
     18 C1C        68.6990   71.9680   71.7750 C.ar      1 W37         0.0562
     19 C8P        67.6810   71.7130   70.8060 C.ar      1 W37         0.0081
     20 C4P        67.2490   70.3360   70.6330 C.ar      1 W37        -0.0136
     21 C5C        66.2460   70.0260   69.6840 C.ar      1 W37        -0.0218
     22 C1D        69.2670   73.2900   72.0940 C.ar      1 W37         0.0040
     23 C2D        70.6190   73.5370   71.7800 C.ar      1 W37        -0.0471
     24 C3D        71.1990   74.7780   72.0990 C.ar      1 W37        -0.0492
     25 C4D        70.4390   75.7860   72.7340 C.ar      1 W37         0.0153
     26 C5D        69.0740   75.5540   73.0480 C.ar      1 W37        -0.0492
     27 C6D        68.4840   74.3020   72.7280 C.ar      1 W37        -0.0471
     28 BR29       71.2410   77.3940   73.1700 Br        1 W37        -0.0476
     29 C1E        61.3480   71.9690   61.6110 C.3       1 W37        -0.0415
     30 H1         63.8117   69.0634   57.4597 H         1 W37         0.0292
     31 H2         63.9550   68.6911   59.3033 H         1 W37         0.0292
     32 H3         61.8448   70.4106   57.8765 H         1 W37         0.0725
     33 H4         62.0243   69.2144   60.6989 H         1 W37         0.0997
     34 H5         60.7101   70.2492   60.0441 H         1 W37         0.0997
     35 H6         62.7276   71.9344   60.1145 H         1 W37         0.2047
     36 H7         63.9725   71.7495   62.0926 H         1 W37         0.0814
     37 H8         64.2254   70.3152   61.0411 H         1 W37         0.0814
     38 H9         63.0547   68.8891   62.4800 H         1 W37         0.0317
     39 H10        62.0990   70.2263   63.2047 H         1 W37         0.0317
     40 H11        64.8402   70.8929   63.6323 H         1 W37         0.0267
     41 H12        64.6865   69.1496   64.0369 H         1 W37         0.0267
     42 H13        62.3539   70.5668   65.0308 H         1 W37         0.0266
     43 H14        63.8368   71.4090   65.5952 H         1 W37         0.0266
     44 H15        63.8058   68.3835   65.7470 H         1 W37         0.0291
     45 H16        62.7958   69.2824   66.9295 H         1 W37         0.0291
     46 H17        65.7481   69.9223   66.4047 H         1 W37         0.0616
     47 H18        65.1966   68.7940   67.6891 H         1 W37         0.0616
     48 H19        69.2862   68.8328   72.9658 H         1 W37         0.0764
     49 H20        67.5049   68.2667   71.2915 H         1 W37         0.0675
     50 H21        65.6310   73.1812   68.4710 H         1 W37         0.0615
     51 H22        67.3962   73.7583   70.1321 H         1 W37         0.0649
     52 H23        65.9235   68.9989   69.5570 H         1 W37         0.0519
     53 H24        71.2113   72.7708   71.2929 H         1 W37         0.0653
     54 H25        72.2390   74.9630   71.8554 H         1 W37         0.0649
     55 H26        68.4858   76.3272   73.5288 H         1 W37         0.0649
     56 H27        67.4427   74.1154   72.9643 H         1 W37         0.0653
     57 H28        60.5214   72.2869   60.9586 H         1 W37         0.0778
     58 H29        61.7891   72.8502   62.0997 H         1 W37         0.0778
     59 H30        60.9657   71.2779   62.3767 H         1 W37         0.0778
@<TRIPOS>BOND
     1    2    1 2  
     2    3    2 1  
     3    4    3 1  
     4    5    4 1  
     5    4   29 1  
     6    6    5 1  
     7    7    6 1  
     8    8    7 1  
     9    9    8 1  
    10   10    9 1  
    11   11   10 1  
    12   13   11 1  
    13   12   14 ar 
    14   17   12 ar 
    15   15   13 ar 
    16   13   21 ar 
    17   14   20 ar 
    18   16   15 ar 
    19   19   16 ar 
    20   18   17 ar 
    21   18   19 ar 
    22   18   22 1  
    23   19   20 ar 
    24   20   21 ar 
    25   22   23 ar 
    26   22   27 ar 
    27   23   24 ar 
    28   24   25 ar 
    29   25   26 ar 
    30   25   28 1  
    31   26   27 ar 
    32    1   30 1  
    33    1   31 1  
    34    2   32 1  
    35    3   33 1  
    36    3   34 1  
    37    4   35 1  
    38    5   36 1  
    39    5   37 1  
    40    6   38 1  
    41    6   39 1  
    42    7   40 1  
    43    7   41 1  
    44    8   42 1  
    45    8   43 1  
    46    9   44 1  
    47    9   45 1  
    48   10   46 1  
    49   10   47 1  
    50   12   48 1  
    51   14   49 1  
    52   15   50 1  
    53   16   51 1  
    54   21   52 1  
    55   23   53 1  
    56   24   54 1  
    57   26   55 1  
    58   27   56 1  
    59   29   57 1  
    60   29   58 1  
    61   29   59 1  
@<TRIPOS>SUBSTRUCTURE
     1 W37         1

