### 
### Created by X-TOOL on Mon Sep 10 21:12:49 2018
### 

@<TRIPOS>MOLECULE
1o6i_ligand
   17    17     1     0     0
SMALL
GAST_HUCK


@<TRIPOS>ATOM
      1 N          17.4790   44.8250  102.0630 N.4       1 0HZ         0.2455
      2 CA         18.3740   44.6700  103.2560 C.3       1 0HZ         0.0484
      3 CB         19.0950   46.0050  103.3720 C.3       1 0HZ         0.0115
      4 CG         18.1800   47.0260  102.6730 C.3       1 0HZ        -0.0052
      5 CD         17.1570   46.2510  101.8230 C.3       1 0HZ        -0.0313
      6 C          19.3580   43.5230  103.0310 C.2       1 0HZ         0.1467
      7 O          20.4680   43.5410  103.5490 O.2       1 0HZ        -0.3690
      8 H1         16.6237   44.3165  102.2242 H         1 0HZ         0.2035
      9 H2         17.9444   44.4509  101.2509 H         1 0HZ         0.2035
     10 H3         17.7834   44.4717  104.1626 H         1 0HZ         0.1089
     11 H4         20.0732   45.9588  102.8711 H         1 0HZ         0.0348
     12 H5         19.2365   46.2754  104.4288 H         1 0HZ         0.0348
     13 H6         18.7803   47.6827  102.0262 H         1 0HZ         0.0320
     14 H7         17.6554   47.6327  103.4258 H         1 0HZ         0.0320
     15 H8         16.1307   46.4777  102.1475 H         1 0HZ         0.0814
     16 H9         17.2683   46.5007  100.7575 H         1 0HZ         0.0814
     17 H10        19.0696   42.6808  102.4037 H         1 0HZ         0.1409
@<TRIPOS>BOND
     1    1    2 1  
     2    1    5 1  
     3    2    3 1  
     4    2    6 1  
     5    3    4 1  
     6    4    5 1  
     7    6    7 2  
     8    1    8 1  
     9    1    9 1  
    10    2   10 1  
    11    3   11 1  
    12    3   12 1  
    13    4   13 1  
    14    4   14 1  
    15    5   15 1  
    16    5   16 1  
    17    6   17 1  
@<TRIPOS>SUBSTRUCTURE
     1 0HZ         1

