### 
### Created by X-TOOL on Mon Sep 10 21:12:50 2018
### 

@<TRIPOS>MOLECULE
1o6q_ligand
   49    51     1     0     0
SMALL
GAST_HUCK


@<TRIPOS>ATOM
      1 C3A        63.1340   67.6950   58.8050 C.2       1 R17        -0.1125
      2 C2A        63.1290   68.9560   58.3740 C.2       1 R17        -0.0447
      3 C1A        63.7300   70.0980   59.1590 C.3       1 R17        -0.0031
      4 N1         62.9050   71.3300   59.0640 N.4       1 R17         0.2555
      5 C1B        61.6770   71.2420   59.9220 C.3       1 R17        -0.0135
      6 C2B        61.9050   71.5060   61.4030 C.2       1 R17        -0.0518
      7 C3B        62.1260   70.5520   62.3090 C.2       1 R17        -0.0639
      8 C4B        62.3430   70.8550   63.7650 C.3       1 R17         0.0868
      9 O5B        63.7190   71.2540   63.9650 O.3       1 R17        -0.3142
     10 C6C        64.2430   71.0620   65.2680 C.ar      1 R17         0.0837
     11 C7C        63.7170   70.0560   66.1390 C.ar      1 R17        -0.0022
     12 C7P        64.3020   69.9320   67.4120 C.ar      1 R17         0.1200
     13 O1C        63.9750   69.0710   68.3720 O.3       1 R17        -0.2554
     14 C2C        64.8010   69.2810   69.4480 C.2       1 R17         0.0971
     15 C3C        65.6720   70.2760   69.2090 C.2       1 R17        -0.0004
     16 C3P        65.3710   70.7390   67.8690 C.ar      1 R17        -0.0074
     17 C4C        65.8910   71.7310   67.0190 C.ar      1 R17        -0.0743
     18 C5C        65.3160   71.8850   65.7130 C.ar      1 R17        -0.0441
     19 C1D        66.7140   70.7430   70.1670 C.ar      1 R17        -0.0346
     20 C2D        67.4470   69.7690   70.8920 C.ar      1 R17        -0.0604
     21 C3D        68.4430   70.1650   71.8020 C.ar      1 R17        -0.0581
     22 C4D        68.7110   71.5280   71.9910 C.ar      1 R17         0.0069
     23 C5D        67.9840   72.5200   71.2700 C.ar      1 R17        -0.0581
     24 C6D        66.9830   72.1230   70.3570 C.ar      1 R17        -0.0604
     25 BR25       70.0100   72.0260   73.1920 Br        1 R17        -0.0548
     26 C1E        63.7350   72.5360   59.3980 C.3       1 R17        -0.0403
     27 H1         62.6859   66.9101   58.1974 H         1 R17         0.0292
     28 H2         63.5862   67.4494   59.7648 H         1 R17         0.0292
     29 H3         62.6701   69.1733   57.4106 H         1 R17         0.0725
     30 H4         64.7343   70.3112   58.7643 H         1 R17         0.0997
     31 H5         63.8065   69.8019   60.2156 H         1 R17         0.0997
     32 H6         62.5995   71.4228   58.1079 H         1 R17         0.2060
     33 H7         61.2592   70.2299   59.8166 H         1 R17         0.0939
     34 H8         60.9493   71.9794   59.5524 H         1 R17         0.0939
     35 H9         61.8866   72.5396   61.7453 H         1 R17         0.0503
     36 H10        62.1501   69.5139   61.9810 H         1 R17         0.0478
     37 H11        62.1289   69.9576   64.3640 H         1 R17         0.0737
     38 H12        61.6740   71.6712   64.0752 H         1 R17         0.0737
     39 H13        62.8997   69.4146   65.8298 H         1 R17         0.0472
     40 H14        64.7562   68.7138   70.3766 H         1 R17         0.1112
     41 H15        66.7081   72.3654   67.3429 H         1 R17         0.0539
     42 H16        65.7084   72.6468   65.0491 H         1 R17         0.0480
     43 H17        67.2386   68.7156   70.7440 H         1 R17         0.0577
     44 H18        69.0017   69.4190   72.3555 H         1 R17         0.0628
     45 H19        68.1983   73.5717   71.4217 H         1 R17         0.0628
     46 H20        66.4230   72.8685   69.8042 H         1 R17         0.0577
     47 H21        64.6221   72.5619   58.7481 H         1 R17         0.0778
     48 H22        64.0525   72.4828   60.4498 H         1 R17         0.0778
     49 H23        63.1385   73.4467   59.2406 H         1 R17         0.0778
@<TRIPOS>BOND
     1    1    2 2  
     2    2    3 1  
     3    3    4 1  
     4    4    5 1  
     5    4   26 1  
     6    5    6 1  
     7    6    7 2  
     8    7    8 1  
     9    8    9 1  
    10    9   10 1  
    11   10   11 ar 
    12   10   18 ar 
    13   11   12 ar 
    14   12   13 1  
    15   12   16 ar 
    16   13   14 1  
    17   14   15 2  
    18   15   16 1  
    19   15   19 1  
    20   16   17 ar 
    21   17   18 ar 
    22   19   20 ar 
    23   19   24 ar 
    24   20   21 ar 
    25   21   22 ar 
    26   22   23 ar 
    27   22   25 1  
    28   23   24 ar 
    29    1   27 1  
    30    1   28 1  
    31    2   29 1  
    32    3   30 1  
    33    3   31 1  
    34    4   32 1  
    35    5   33 1  
    36    5   34 1  
    37    6   35 1  
    38    7   36 1  
    39    8   37 1  
    40    8   38 1  
    41   11   39 1  
    42   14   40 1  
    43   17   41 1  
    44   18   42 1  
    45   20   43 1  
    46   21   44 1  
    47   23   45 1  
    48   24   46 1  
    49   26   47 1  
    50   26   48 1  
    51   26   49 1  
@<TRIPOS>SUBSTRUCTURE
     1 R17         1

