### 
### Created by X-TOOL on Mon Sep 10 21:12:50 2018
### 

@<TRIPOS>MOLECULE
1o6r_ligand
   57    59     1     0     0
SMALL
GAST_HUCK


@<TRIPOS>ATOM
      1 C2A        62.9540   69.0520   58.3270 C.2       1 R19        -0.0447
      2 C1A        62.7160   69.4010   59.7780 C.3       1 R19        -0.0043
      3 N1         62.2090   70.7880   59.9590 N.4       1 R19         0.2462
      4 C1E        60.7210   70.8160   59.8630 C.3       1 R19        -0.0415
      5 C1B        62.6510   71.4000   61.2670 C.3       1 R19        -0.0305
      6 C2B        62.1090   70.7320   62.5800 C.3       1 R19        -0.0125
      7 C3B        63.1200   69.7030   63.1510 C.3       1 R19        -0.0482
      8 C4B        63.8060   70.2380   64.4170 C.3       1 R19        -0.0504
      9 C5B        63.4140   69.3830   65.6290 C.3       1 R19        -0.0252
     10 C6B        64.6170   69.2380   66.5670 C.3       1 R19         0.0693
     11 O7B        64.1850   69.5400   67.8970 O.3       1 R19        -0.3231
     12 C6C        65.1650   70.0590   68.7550 C.ar      1 R19         0.0812
     13 C5C        65.4410   71.4550   68.7280 C.ar      1 R19        -0.0443
     14 C4C        66.4230   72.0450   69.5810 C.ar      1 R19        -0.0743
     15 C3P        67.1190   71.2000   70.4610 C.ar      1 R19        -0.0074
     16 C3C        68.1580   71.4620   71.4410 C.2       1 R19        -0.0004
     17 C1D        68.8180   72.7850   71.8210 C.ar      1 R19        -0.0346
     18 C6D        68.0370   73.9170   72.2120 C.ar      1 R19        -0.0604
     19 C5D        68.6730   75.1430   72.5840 C.ar      1 R19        -0.0581
     20 C4D        70.1080   75.2510   72.5690 C.ar      1 R19         0.0069
     21 BR27       70.9870   76.8570   73.0760 Br        1 R19        -0.0548
     22 C3D        70.8750   74.1130   72.1710 C.ar      1 R19        -0.0581
     23 C2D        70.2360   72.8970   71.8020 C.ar      1 R19        -0.0604
     24 C2C        68.4430   70.2330   71.9910 C.2       1 R19         0.0971
     25 O1C        67.6610   69.2200   71.4320 O.3       1 R19        -0.2554
     26 C7P        66.8400   69.7740   70.4910 C.ar      1 R19         0.1200
     27 C7C        65.8630   69.1990   69.6420 C.ar      1 R19        -0.0024
     28 C3A        63.8030   68.0950   57.9370 C.2       1 R19        -0.1125
     29 H1         62.4090   69.6053   57.5636 H         1 R19         0.0725
     30 H2         63.6650   69.2991   60.3248 H         1 R19         0.0997
     31 H3         61.9770   68.6993   60.1921 H         1 R19         0.0997
     32 H4         62.5841   71.3516   59.2122 H         1 R19         0.2047
     33 H5         60.3642   71.8476   59.9990 H         1 R19         0.0778
     34 H6         60.2909   70.1732   60.6452 H         1 R19         0.0778
     35 H7         60.4104   70.4480   58.8740 H         1 R19         0.0778
     36 H8         62.3256   72.4508   61.2695 H         1 R19         0.0814
     37 H9         63.7496   71.3562   61.3005 H         1 R19         0.0814
     38 H10        61.1630   70.2175   62.3555 H         1 R19         0.0317
     39 H11        61.9313   71.5144   63.3325 H         1 R19         0.0317
     40 H12        63.8860   69.4930   62.3900 H         1 R19         0.0267
     41 H13        62.5849   68.7744   63.3987 H         1 R19         0.0267
     42 H14        63.4927   71.2783   64.5888 H         1 R19         0.0266
     43 H15        64.8972   70.2010   64.2831 H         1 R19         0.0266
     44 H16        63.0947   68.3876   65.2868 H         1 R19         0.0291
     45 H17        62.5867   69.8686   66.1673 H         1 R19         0.0291
     46 H18        65.4109   69.9372   66.2655 H         1 R19         0.0612
     47 H19        65.0002   68.2078   66.5248 H         1 R19         0.0612
     48 H20        64.8908   72.0879   68.0411 H         1 R19         0.0480
     49 H21        66.6245   73.1097   69.5502 H         1 R19         0.0539
     50 H22        66.9554   73.8456   72.2266 H         1 R19         0.0577
     51 H23        68.0711   75.9950   72.8787 H         1 R19         0.0628
     52 H24        71.9569   74.1772   72.1500 H         1 R19         0.0628
     53 H25        70.8366   72.0456   71.5028 H         1 R19         0.0577
     54 H26        69.1883   70.0702   72.7682 H         1 R19         0.1112
     55 H27        65.6550   68.1355   69.6689 H         1 R19         0.0472
     56 H28        63.9365   67.8845   56.8769 H         1 R19         0.0292
     57 H29        64.3608   67.5263   58.6795 H         1 R19         0.0292
@<TRIPOS>BOND
     1    1    2 1  
     2    1   28 2  
     3    2    3 1  
     4    3    4 1  
     5    3    5 1  
     6    5    6 1  
     7    6    7 1  
     8    7    8 1  
     9    8    9 1  
    10    9   10 1  
    11   10   11 1  
    12   11   12 1  
    13   12   13 ar 
    14   12   27 ar 
    15   13   14 ar 
    16   14   15 ar 
    17   15   16 1  
    18   15   26 ar 
    19   16   17 1  
    20   16   24 2  
    21   17   18 ar 
    22   17   23 ar 
    23   18   19 ar 
    24   19   20 ar 
    25   20   21 1  
    26   20   22 ar 
    27   22   23 ar 
    28   24   25 1  
    29   25   26 1  
    30   26   27 ar 
    31    1   29 1  
    32    2   30 1  
    33    2   31 1  
    34    3   32 1  
    35    4   33 1  
    36    4   34 1  
    37    4   35 1  
    38    5   36 1  
    39    5   37 1  
    40    6   38 1  
    41    6   39 1  
    42    7   40 1  
    43    7   41 1  
    44    8   42 1  
    45    8   43 1  
    46    9   44 1  
    47    9   45 1  
    48   10   46 1  
    49   10   47 1  
    50   13   48 1  
    51   14   49 1  
    52   18   50 1  
    53   19   51 1  
    54   22   52 1  
    55   23   53 1  
    56   24   54 1  
    57   27   55 1  
    58   28   56 1  
    59   28   57 1  
@<TRIPOS>SUBSTRUCTURE
     1 R19         1

