### 
### Created by X-TOOL on Mon Sep 10 21:12:50 2018
### 

@<TRIPOS>MOLECULE
1o79_ligand
   65    68     1     0     0
SMALL
GAST_HUCK


@<TRIPOS>ATOM
      1 C4E        61.7520   70.3400   59.1340 C.3       1 R23        -0.0434
      2 C5E        60.7820   70.9170   60.2370 C.3       1 R23        -0.0123
      3 C6E        61.5940   71.6910   61.3290 C.3       1 R23        -0.0306
      4 N1E        62.5460   70.7590   62.0580 N.4       1 R23         0.2463
      5 C2E        63.0710   69.6150   61.2130 C.3       1 R23        -0.0306
      6 C3E        63.1830   70.0230   59.7080 C.3       1 R23        -0.0123
      7 C1D        62.0010   70.2320   63.3320 C.3       1 R23        -0.0011
      8 C4C        62.9580   70.3870   64.5090 C.ar      1 R23        -0.0053
      9 C3C        63.0800   69.3500   65.4870 C.ar      1 R23        -0.0618
     10 C2C        63.9740   69.4960   66.5960 C.ar      1 R23        -0.0664
     11 C1C        64.7520   70.6900   66.7280 C.ar      1 R23        -0.0466
     12 C6C        64.6160   71.7070   65.7420 C.ar      1 R23        -0.0664
     13 C5C        63.7340   71.5600   64.6500 C.ar      1 R23        -0.0618
     14 C4B        65.7250   70.9580   67.8770 C.3       1 R23        -0.0104
     15 C3B        65.0390   70.7730   69.2760 C.3       1 R23        -0.0393
     16 C2B        66.0410   71.1580   70.3970 C.3       1 R23        -0.0278
     17 C1B        67.3610   70.3230   70.3060 C.3       1 R23         0.0472
     18 C6B        68.0190   70.4790   68.9070 C.3       1 R23        -0.0278
     19 C5B        67.0290   70.0880   67.7630 C.3       1 R23        -0.0393
     20 N4         68.3170   70.6110   71.4130 N.am      1 R23        -0.2452
     21 C1         68.7570   71.9310   71.6240 C.2       1 R23         0.3468
     22 O3         69.6140   72.2890   72.6020 O.3       1 R23        -0.1994
     23 C1F        70.0550   73.6240   72.7930 C.ar      1 R23         0.1238
     24 C6F        71.2600   74.0710   72.1760 C.ar      1 R23        -0.0277
     25 C5F        71.7170   75.4060   72.3770 C.ar      1 R23        -0.0556
     26 C4F        70.9750   76.3010   73.1950 C.ar      1 R23         0.0293
     27 C3F        69.7630   75.8640   73.8100 C.ar      1 R23        -0.0556
     28 C2F        69.3040   74.5260   73.6100 C.ar      1 R23        -0.0277
     29 C1A        68.7920   69.5240   72.2780 C.3       1 R23         0.0251
     30 O2         68.3890   72.8750   70.9230 O.2       1 R23        -0.3721
     31 CL31       71.5620   77.9300   73.4440 Cl        1 R23        -0.0803
     32 H1         61.8503   71.0802   58.3263 H         1 R23         0.0269
     33 H2         61.3186   69.4128   58.7310 H         1 R23         0.0269
     34 H3         60.2378   70.0868   60.7109 H         1 R23         0.0317
     35 H4         60.0642   71.6038   59.7647 H         1 R23         0.0317
     36 H5         60.8938   72.1303   62.0547 H         1 R23         0.0814
     37 H6         62.1731   72.4923   60.8469 H         1 R23         0.0814
     38 H7         63.3455   71.3231   62.3002 H         1 R23         0.2047
     39 H8         62.3848   68.7599   61.3020 H         1 R23         0.0814
     40 H9         64.0667   69.3260   61.5806 H         1 R23         0.0814
     41 H10        63.8187   70.9162   59.6181 H         1 R23         0.0317
     42 H11        63.6303   69.1956   59.1376 H         1 R23         0.0317
     43 H12        61.7796   69.1625   63.2009 H         1 R23         0.0967
     44 H13        61.0718   70.7730   63.5643 H         1 R23         0.0967
     45 H14        62.4905   68.4458   65.3876 H         1 R23         0.0542
     46 H15        64.0612   68.7054   67.3325 H         1 R23         0.0540
     47 H16        65.2025   72.6142   65.8315 H         1 R23         0.0540
     48 H17        63.6511   72.3520   63.9145 H         1 R23         0.0542
     49 H18        66.0308   72.0119   67.8013 H         1 R23         0.0448
     50 H19        64.7356   69.7230   69.3999 H         1 R23         0.0289
     51 H20        64.1522   71.4208   69.3383 H         1 R23         0.0289
     52 H21        65.5702   70.9749   71.3741 H         1 R23         0.0289
     53 H22        66.2877   72.2259   70.3032 H         1 R23         0.0289
     54 H23        67.0744   69.2660   70.4090 H         1 R23         0.0558
     55 H24        68.9033   69.8271   68.8530 H         1 R23         0.0289
     56 H25        68.3267   71.5263   68.7712 H         1 R23         0.0289
     57 H26        67.5058   70.2683   66.7883 H         1 R23         0.0289
     58 H27        66.7681   69.0231   67.8522 H         1 R23         0.0289
     59 H28        71.8307   73.3931   71.5517 H         1 R23         0.0553
     60 H29        72.6336   75.7400   71.9044 H         1 R23         0.0597
     61 H30        69.1915   76.5469   74.4282 H         1 R23         0.0597
     62 H31        68.3846   74.1938   74.0785 H         1 R23         0.0553
     63 H32        69.4849   69.9299   73.0298 H         1 R23         0.0486
     64 H33        69.3127   68.7710   71.6682 H         1 R23         0.0486
     65 H34        67.9344   69.0568   72.7842 H         1 R23         0.0486
@<TRIPOS>BOND
     1    1    2 1  
     2    1    6 1  
     3    2    3 1  
     4    3    4 1  
     5    4    5 1  
     6    4    7 1  
     7    5    6 1  
     8    7    8 1  
     9    8    9 ar 
    10    8   13 ar 
    11    9   10 ar 
    12   10   11 ar 
    13   11   12 ar 
    14   11   14 1  
    15   12   13 ar 
    16   14   15 1  
    17   14   19 1  
    18   15   16 1  
    19   16   17 1  
    20   17   18 1  
    21   17   20 1  
    22   18   19 1  
    23   20   21 am 
    24   20   29 1  
    25   21   22 1  
    26   21   30 2  
    27   22   23 1  
    28   23   24 ar 
    29   23   28 ar 
    30   24   25 ar 
    31   25   26 ar 
    32   26   27 ar 
    33   26   31 1  
    34   27   28 ar 
    35    1   32 1  
    36    1   33 1  
    37    2   34 1  
    38    2   35 1  
    39    3   36 1  
    40    3   37 1  
    41    4   38 1  
    42    5   39 1  
    43    5   40 1  
    44    6   41 1  
    45    6   42 1  
    46    7   43 1  
    47    7   44 1  
    48    9   45 1  
    49   10   46 1  
    50   12   47 1  
    51   13   48 1  
    52   14   49 1  
    53   15   50 1  
    54   15   51 1  
    55   16   52 1  
    56   16   53 1  
    57   17   54 1  
    58   18   55 1  
    59   18   56 1  
    60   19   57 1  
    61   19   58 1  
    62   24   59 1  
    63   25   60 1  
    64   27   61 1  
    65   28   62 1  
    66   29   63 1  
    67   29   64 1  
    68   29   65 1  
@<TRIPOS>SUBSTRUCTURE
     1 R23         1

