### 
### Created by X-TOOL on Mon Sep 10 21:12:50 2018
### 

@<TRIPOS>MOLECULE
1o86_ligand
   60    61     1     0     0
SMALL
GAST_HUCK


@<TRIPOS>ATOM
      1 O1         40.2910   33.7430   45.1200 O.2       1 LPR        -0.3906
      2 O2         43.3690   36.2010   48.2690 O.co2     1 LPR        -0.5643
      3 O3         41.9390   37.2830   47.0690 O.co2     1 LPR        -0.5643
      4 O4         38.8430   33.3680   41.8670 O.co2     1 LPR        -0.5666
      5 O5         40.7030   32.2720   42.3260 O.co2     1 LPR        -0.5666
      6 N1         41.8970   34.0630   47.2660 N.4       1 LPR         0.2599
      7 N2         41.8100   34.5330   43.5990 N.am      1 LPR        -0.2529
      8 N3         43.3290   27.7740   44.0870 N.4       1 LPR         0.2185
      9 C1         41.5020   34.0520   44.8400 C.2       1 LPR         0.2288
     10 C2         42.6120   33.8520   45.9430 C.3       1 LPR         0.0685
     11 C3         42.2590   36.2670   47.6540 C.2       1 LPR         0.0847
     12 C4         41.3150   35.0650   47.6820 C.3       1 LPR         0.0340
     13 C5         40.7150   34.6850   42.5590 C.3       1 LPR         0.0973
     14 C6         41.5050   35.2370   41.3530 C.3       1 LPR        -0.0159
     15 C7         42.8260   35.3690   41.6800 C.3       1 LPR        -0.0288
     16 C8         43.1380   34.9560   43.0620 C.3       1 LPR         0.0363
     17 C9         40.0810   33.2840   42.2240 C.2       1 LPR         0.0603
     18 C10        43.2520   32.4730   45.7840 C.3       1 LPR         0.0082
     19 C11        42.4840   31.2480   45.5360 C.3       1 LPR        -0.0410
     20 C12        43.2960   30.0620   44.8420 C.3       1 LPR        -0.0123
     21 C13        42.4870   28.8950   44.6290 C.3       1 LPR        -0.0354
     22 C14        40.5860   35.3650   48.9320 C.3       1 LPR         0.0122
     23 C15        39.4080   36.2990   49.1630 C.3       1 LPR        -0.0125
     24 C16        38.8470   36.4010   50.5490 C.ar      1 LPR        -0.0427
     25 C17        38.5660   35.2060   51.3310 C.ar      1 LPR        -0.0603
     26 C18        38.0160   35.3190   52.6560 C.ar      1 LPR        -0.0686
     27 C19        37.7370   36.6270   53.2180 C.ar      1 LPR        -0.0687
     28 C20        38.0140   37.8220   52.4430 C.ar      1 LPR        -0.0686
     29 C21        38.5680   37.7100   51.1120 C.ar      1 LPR        -0.0603
     30 H1         41.1966   33.3385   47.2903 H         1 LPR         0.2052
     31 H2         42.6000   33.8743   47.9633 H         1 LPR         0.2052
     32 H3         42.7519   26.9605   43.9413 H         1 LPR         0.1994
     33 H4         44.0597   27.5539   44.7455 H         1 LPR         0.1994
     34 H5         43.7399   28.0557   43.2108 H         1 LPR         0.1994
     35 H6         43.3986   34.6129   45.8319 H         1 LPR         0.1099
     36 H7         40.5513   35.2112   46.9040 H         1 LPR         0.1027
     37 H8         39.9318   35.3841   42.8875 H         1 LPR         0.0728
     38 H9         41.0996   36.2199   41.0711 H         1 LPR         0.0306
     39 H10        41.4073   34.5431   40.5051 H         1 LPR         0.0306
     40 H11        43.1097   36.4250   41.5605 H         1 LPR         0.0286
     41 H12        43.4183   34.7498   40.9902 H         1 LPR         0.0286
     42 H13        43.5486   35.7959   43.6417 H         1 LPR         0.0524
     43 H14        43.8523   34.1195   43.0721 H         1 LPR         0.0524
     44 H15        43.8133   32.2931   46.7128 H         1 LPR         0.0346
     45 H16        43.9547   32.5628   44.9425 H         1 LPR         0.0346
     46 H17        41.6353   31.5050   44.8851 H         1 LPR         0.0270
     47 H18        42.1072   30.8817   46.5024 H         1 LPR         0.0270
     48 H19        44.1446   29.7904   45.4870 H         1 LPR         0.0317
     49 H20        43.6720   30.4132   43.8698 H         1 LPR         0.0317
     50 H21        41.6895   29.1316   43.9093 H         1 LPR         0.0813
     51 H22        42.0385   28.5840   45.5841 H         1 LPR         0.0813
     52 H23        40.2269   34.3847   49.2785 H         1 LPR         0.0361
     53 H24        41.3632   35.7340   49.6173 H         1 LPR         0.0361
     54 H25        38.5925   35.9647   48.5048 H         1 LPR         0.0429
     55 H26        39.7287   37.3083   48.8658 H         1 LPR         0.0429
     56 H27        38.7718   34.2270   50.9136 H         1 LPR         0.0557
     57 H28        37.8100   34.4259   53.2347 H         1 LPR         0.0599
     58 H29        37.3220   36.7115   54.2159 H         1 LPR         0.0559
     59 H30        37.8054   38.7997   52.8622 H         1 LPR         0.0599
     60 H31        38.7751   38.6036   50.5344 H         1 LPR         0.0557
@<TRIPOS>BOND
     1    9    1 2  
     2    9   10 1  
     3   10   18 1  
     4   12   11 1  
     5   13   14 1  
     6   13   17 1  
     7   14   15 1  
     8   16   15 1  
     9   18   19 1  
    10   19   20 1  
    11   20   21 1  
    12   22   23 1  
    13   23   24 1  
    14   24   25 ar 
    15   24   29 ar 
    16   25   26 ar 
    17   26   27 ar 
    18   28   27 ar 
    19   29   28 ar 
    20   12   22 1  
    21   21    8 1  
    22   17    5 ar 
    23   17    4 ar 
    24    7   16 1  
    25    7   13 1  
    26    6   12 1  
    27   11    3 ar 
    28   11    2 ar 
    29   10    6 1  
    30    9    7 am 
    31    6   30 1  
    32    6   31 1  
    33    8   32 1  
    34    8   33 1  
    35    8   34 1  
    36   10   35 1  
    37   12   36 1  
    38   13   37 1  
    39   14   38 1  
    40   14   39 1  
    41   15   40 1  
    42   15   41 1  
    43   16   42 1  
    44   16   43 1  
    45   18   44 1  
    46   18   45 1  
    47   19   46 1  
    48   19   47 1  
    49   20   48 1  
    50   20   49 1  
    51   21   50 1  
    52   21   51 1  
    53   22   52 1  
    54   22   53 1  
    55   23   54 1  
    56   23   55 1  
    57   25   56 1  
    58   26   57 1  
    59   27   58 1  
    60   28   59 1  
    61   29   60 1  
@<TRIPOS>SUBSTRUCTURE
     1 LPR         1

