### 
### Created by X-TOOL on Mon Sep 10 21:12:50 2018
### 

@<TRIPOS>MOLECULE
1o9e_ligand
  104   107     1     0     0
SMALL
GAST_HUCK


@<TRIPOS>ATOM
      1 C1         35.6590   49.1930   38.0610 C.2       1 FSC        -0.0865
      2 C4         36.4920   50.1180   37.5040 C.2       1 FSC        -0.0177
      3 C11        36.2070   51.6230   37.4270 C.3       1 FSC         0.0462
      4 C18        35.9240   52.0570   35.9870 C.3       1 FSC        -0.0394
      5 C17        37.3930   52.4140   37.9720 C.3       1 FSC         0.0991
      6 O24        36.9210   53.6560   38.4990 O.3       1 FSC        -0.2727
      7 C31        37.7960   54.4870   39.1150 C.2       1 FSC         0.2309
      8 O37        38.6440   54.0460   39.8750 O.2       1 FSC        -0.3707
      9 C36        37.7160   55.9680   38.8690 C.3       1 FSC         0.0372
     10 C10        37.7300   49.4310   36.9420 C.3       1 FSC         0.0178
     11 C6         37.4690   47.9100   37.0180 C.3       1 FSC         0.0139
     12 O13        37.7500   47.2570   35.7690 O.3       1 FSC        -0.4088
     13 C2         35.9890   47.8130   37.4870 C.3       1 FSC        -0.0798
     14 C7         35.8440   46.7170   38.5520 C.3       1 FSC        -0.1270
     15 C5         35.1460   47.3290   36.3110 C.2       1 FSC        -0.1431
     16 C12        34.0440   47.8220   35.6870 C.2       1 FSC        -0.0244
     17 C20        33.6080   47.1000   34.4270 C.3       1 FSC         0.0460
     18 C27        32.8500   45.8050   34.7500 C.3       1 FSC         0.0707
     19 O32        33.0130   44.8670   33.6860 O.3       1 FSC        -0.3786
     20 C38        32.2570   43.6790   33.9150 C.3       1 FSC         0.0368
     21 C26        32.7160   48.0930   33.6660 C.3       1 FSC        -0.0232
     22 C25        32.1060   49.0140   34.7470 C.3       1 FSC        -0.0249
     23 C19        33.1010   49.0110   35.9180 C.3       1 FSC         0.0279
     24 C15        32.3800   49.0790   37.3340 C.3       1 FSC         0.0096
     25 C23        32.0750   47.7100   37.9640 C.3       1 FSC        -0.0560
     26 C9         33.1390   49.9830   38.3780 C.3       1 FSC         0.0922
     27 O16        32.2450   50.2480   39.4560 O.3       1 FSC        -0.3872
     28 C3         34.4640   49.4110   39.0190 C.3       1 FSC         0.0962
     29 O8         34.8820   50.3460   40.0340 O.3       1 FSC        -0.3360
     30 C14        34.9630   49.8610   41.4040 C.3       1 FSC         0.1902
     31 O22        36.2230   49.1290   41.6190 O.3       1 FSC        -0.3404
     32 C30        37.4510   49.9450   41.5300 C.3       1 FSC         0.1124
     33 C33        37.3750   51.2980   42.3260 C.3       1 FSC         0.1165
     34 O39        38.5100   52.1010   41.9930 O.3       1 FSC        -0.3861
     35 C28        36.0570   52.0020   41.9240 C.3       1 FSC         0.1462
     36 O34        35.8930   53.4040   42.3160 O.3       1 FSC        -0.2682
     37 C40        35.9270   53.8480   43.5980 C.2       1 FSC         0.2310
     38 O43        36.9920   54.1850   44.0910 O.2       1 FSC        -0.3707
     39 C42        34.6420   53.9700   44.4010 C.3       1 FSC         0.0372
     40 C21        34.8800   51.0810   42.3540 C.3       1 FSC         0.1389
     41 O29        33.6310   51.7460   42.1640 O.3       1 FSC        -0.3837
     42 C35        38.6510   49.1170   42.0000 C.3       1 FSC         0.0638
     43 O41        38.2970   48.3300   43.1690 O.3       1 FSC        -0.4140
     44 C44        39.0400   47.1100   43.4980 C.3       1 FSC         0.0427
     45 C47        39.0280   46.1390   42.3090 C.3       1 FSC        -0.0664
     46 C46        38.3790   46.4140   44.6960 C.3       1 FSC        -0.0664
     47 C45        40.5000   47.4390   43.8450 C.2       1 FSC        -0.0499
     48 C48        40.8270   48.4140   44.7290 C.2       1 FSC        -0.0390
     49 H1         35.3214   51.8425   38.0414 H         1 FSC         0.0649
     50 H2         35.7236   53.1383   35.9626 H         1 FSC         0.0275
     51 H3         35.0473   51.5130   35.6056 H         1 FSC         0.0275
     52 H4         36.7976   51.8318   35.3577 H         1 FSC         0.0275
     53 H5         38.1116   52.6065   37.1618 H         1 FSC         0.0660
     54 H6         37.8852   51.8382   38.7696 H         1 FSC         0.0660
     55 H7         38.4990   56.4788   39.4486 H         1 FSC         0.0483
     56 H8         36.7284   56.3387   39.1808 H         1 FSC         0.0483
     57 H9         37.8621   56.1702   37.7977 H         1 FSC         0.0483
     58 H10        38.6141   49.6940   37.5413 H         1 FSC         0.0596
     59 H11        37.8911   49.7359   35.8975 H         1 FSC         0.0596
     60 H12        38.1193   47.4590   37.7820 H         1 FSC         0.0401
     61 H13        37.5786   46.3265   35.8538 H         1 FSC         0.2076
     62 H14        34.7945   46.6573   38.8761 H         1 FSC        -0.0001
     63 H15        36.4812   46.9582   39.4156 H         1 FSC        -0.0001
     64 H16        36.1522   45.7502   38.1275 H         1 FSC        -0.0001
     65 H17        35.5016   46.3932   35.8822 H         1 FSC         0.0149
     66 H18        34.4895   46.8490   33.8188 H         1 FSC         0.0657
     67 H19        31.7808   46.0303   34.8766 H         1 FSC         0.0607
     68 H20        33.2465   45.3730   35.6807 H         1 FSC         0.0607
     69 H21        32.4068   42.9819   33.0774 H         1 FSC         0.0524
     70 H22        31.1897   43.9331   33.9941 H         1 FSC         0.0524
     71 H23        32.5916   43.2059   34.8500 H         1 FSC         0.0524
     72 H24        31.9219   47.5588   33.1237 H         1 FSC         0.0315
     73 H25        33.3149   48.6802   32.9543 H         1 FSC         0.0315
     74 H26        31.1303   48.6253   35.0738 H         1 FSC         0.0314
     75 H27        31.9815   50.0339   34.3541 H         1 FSC         0.0314
     76 H28        33.7095   49.9245   35.8456 H         1 FSC         0.0638
     77 H29        31.4078   49.5593   37.1494 H         1 FSC         0.0371
     78 H30        31.5794   47.8556   38.9352 H         1 FSC         0.0236
     79 H31        33.0142   47.1566   38.1110 H         1 FSC         0.0236
     80 H32        31.4132   47.1385   37.2967 H         1 FSC         0.0236
     81 H33        33.3952   50.9251   37.8712 H         1 FSC         0.0642
     82 H34        32.6808   50.7931   40.1006 H         1 FSC         0.2101
     83 H35        34.2243   48.4428   39.4828 H         1 FSC         0.0718
     84 H36        34.1185   49.1847   41.6025 H         1 FSC         0.0939
     85 H37        37.6030   50.1975   40.4702 H         1 FSC         0.0646
     86 H38        37.3735   51.0998   43.4080 H         1 FSC         0.0650
     87 H39        38.5083   52.2782   41.0597 H         1 FSC         0.2100
     88 H40        36.0518   52.0205   40.8242 H         1 FSC         0.0704
     89 H41        34.8738   54.3437   45.4093 H         1 FSC         0.0483
     90 H42        34.1621   52.9832   44.4771 H         1 FSC         0.0483
     91 H43        33.9603   54.6715   43.8978 H         1 FSC         0.0483
     92 H44        34.9862   50.7732   43.4047 H         1 FSC         0.0675
     93 H45        33.5293   51.9703   41.2464 H         1 FSC         0.2101
     94 H46        39.4800   49.7932   42.2559 H         1 FSC         0.0573
     95 H47        38.9650   48.4420   41.1903 H         1 FSC         0.0573
     96 H48        39.5890   45.2302   42.5722 H         1 FSC         0.0140
     97 H49        39.4970   46.6200   41.4380 H         1 FSC         0.0140
     98 H50        37.9895   45.8710   42.0649 H         1 FSC         0.0140
     99 H51        38.9373   45.4987   44.9421 H         1 FSC         0.0140
    100 H52        37.3411   46.1532   44.4417 H         1 FSC         0.0140
    101 H53        38.3851   47.0913   45.5627 H         1 FSC         0.0140
    102 H54        41.2969   46.8718   43.3663 H         1 FSC         0.0615
    103 H55        41.8732   48.6195   44.9506 H         1 FSC         0.1385
    104 H56        40.0434   48.9914   45.2173 H         1 FSC         0.1385
@<TRIPOS>BOND
     1    1    2 2  
     2    1   13 1  
     3    1   28 1  
     4    2    3 1  
     5    2   10 1  
     6    3    4 1  
     7    3    5 1  
     8    5    6 1  
     9    6    7 1  
    10    7    8 2  
    11    7    9 1  
    12   10   11 1  
    13   11   12 1  
    14   11   13 1  
    15   13   14 1  
    16   13   15 1  
    17   15   16 2  
    18   16   17 1  
    19   16   23 1  
    20   17   18 1  
    21   17   21 1  
    22   18   19 1  
    23   19   20 1  
    24   21   22 1  
    25   22   23 1  
    26   23   24 1  
    27   24   25 1  
    28   24   26 1  
    29   26   27 1  
    30   26   28 1  
    31   28   29 1  
    32   29   30 1  
    33   30   31 1  
    34   30   40 1  
    35   31   32 1  
    36   32   33 1  
    37   32   42 1  
    38   33   34 1  
    39   33   35 1  
    40   35   36 1  
    41   35   40 1  
    42   36   37 1  
    43   37   38 2  
    44   37   39 1  
    45   40   41 1  
    46   42   43 1  
    47   43   44 1  
    48   44   45 1  
    49   44   46 1  
    50   44   47 1  
    51   47   48 2  
    52    3   49 1  
    53    4   50 1  
    54    4   51 1  
    55    4   52 1  
    56    5   53 1  
    57    5   54 1  
    58    9   55 1  
    59    9   56 1  
    60    9   57 1  
    61   10   58 1  
    62   10   59 1  
    63   11   60 1  
    64   12   61 1  
    65   14   62 1  
    66   14   63 1  
    67   14   64 1  
    68   15   65 1  
    69   17   66 1  
    70   18   67 1  
    71   18   68 1  
    72   20   69 1  
    73   20   70 1  
    74   20   71 1  
    75   21   72 1  
    76   21   73 1  
    77   22   74 1  
    78   22   75 1  
    79   23   76 1  
    80   24   77 1  
    81   25   78 1  
    82   25   79 1  
    83   25   80 1  
    84   26   81 1  
    85   27   82 1  
    86   28   83 1  
    87   30   84 1  
    88   32   85 1  
    89   33   86 1  
    90   34   87 1  
    91   35   88 1  
    92   39   89 1  
    93   39   90 1  
    94   39   91 1  
    95   40   92 1  
    96   41   93 1  
    97   42   94 1  
    98   42   95 1  
    99   45   96 1  
   100   45   97 1  
   101   45   98 1  
   102   46   99 1  
   103   46  100 1  
   104   46  101 1  
   105   47  102 1  
   106   48  103 1  
   107   48  104 1  
@<TRIPOS>SUBSTRUCTURE
     1 FSC         1

