### 
### Created by X-TOOL on Mon Sep 10 21:12:52 2018
### 

@<TRIPOS>MOLECULE
1oau_ligand
   27    27     1     0     0
SMALL
GAST_HUCK


@<TRIPOS>ATOM
      1 N          36.2750   53.5920   76.6750 N.pl3     1 SER        -0.2952
      2 CA         36.4050   52.5790   75.6240 C.3       1 SER         0.1139
      3 C          35.8450   53.2040   74.3130 C.2       1 SER         0.0623
      4 O          35.1510   54.2280   74.3400 O.co2     1 SER        -0.5665
      5 CB         35.5690   51.3450   75.9790 C.3       1 SER         0.0788
      6 OG         36.2090   50.0880   76.0970 O.3       1 SER        -0.3910
      7 OXT        36.2180   53.3960   73.0660 O.co2     1 SER        -0.5665
      8 C1         37.3080   53.5380   77.7330 C.ar      1 DNF         0.0921
      9 C2         37.2630   54.4970   78.7670 C.ar      1 DNF         0.2257
     10 N2         36.2710   55.5460   78.7740 N.2       1 DNF         0.3082
     11 O21        35.4190   55.6980   77.9220 O.2       1 DNF         0.1714
     12 O22        36.2910   56.3300   79.7090 O.2       1 DNF         0.1714
     13 C3         38.1430   54.4930   79.8200 C.ar      1 DNF         0.0140
     14 C4         39.0820   53.5040   79.8180 C.ar      1 DNF         0.1943
     15 N4         40.0540   53.4610   80.9330 N.2       1 DNF         0.3062
     16 O41        39.9390   54.3220   81.7520 O.2       1 DNF         0.1724
     17 O42        40.8610   52.5570   80.8960 O.2       1 DNF         0.1724
     18 C5         39.2270   52.4810   78.8480 C.ar      1 DNF        -0.0246
     19 C6         38.3230   52.5440   77.8250 C.ar      1 DNF        -0.0263
     20 H1         35.5188   54.2914   76.6770 H         1 SER         0.1837
     21 H2         37.4598   52.2944   75.4963 H         1 SER         0.0749
     22 H3         34.8003   51.2422   75.1989 H         1 SER         0.0599
     23 H4         35.0856   51.5514   76.9453 H         1 SER         0.0599
     24 H5         35.5652   49.4258   76.3194 H         1 SER         0.2096
     25 H6         38.0945   55.2345   80.6092 H         1 SER         0.0738
     26 H7         39.9901   51.7138   78.9120 H         1 SER         0.0702
     27 H8         38.3820   51.7971   77.0416 H         1 SER         0.0551
@<TRIPOS>BOND
     1    2    1 1  
     2    2    5 1  
     3    2    3 1  
     4    3    4 ar 
     5    3    7 ar 
     6    5    6 1  
     7    1    8 1  
     8    8    9 ar 
     9    8   19 ar 
    10    9   10 1  
    11    9   13 ar 
    12   10   11 2  
    13   10   12 2  
    14   13   14 ar 
    15   14   15 1  
    16   14   18 ar 
    17   15   16 2  
    18   15   17 2  
    19   18   19 ar 
    20    1   20 1  
    21    2   21 1  
    22    5   22 1  
    23    5   23 1  
    24    6   24 1  
    25   13   25 1  
    26   18   26 1  
    27   19   27 1  
@<TRIPOS>SUBSTRUCTURE
     1 SER         1

