### 
### Created by X-TOOL on Mon Sep 10 21:12:52 2018
### 

@<TRIPOS>MOLECULE
1oay_ligand
   21    22     1     0     0
SMALL
GAST_HUCK


@<TRIPOS>ATOM
      1 O3         40.5940   53.8500   81.7770 O.2       1 FUR        -0.4716
      2 N1         39.4910   54.2830   81.4830 N.2       1 FUR        -0.1469
      3 O2         38.9170   55.0460   82.2420 O.2       1 FUR        -0.4716
      4 C1         38.9110   53.9290   80.3370 C.2       1 FUR         0.2857
      5 O1         37.8950   54.6490   79.4890 O.3       1 FUR        -0.1675
      6 C2         39.0260   52.9210   79.6500 C.2       1 FUR         0.0438
      7 C3         38.4440   52.8150   78.7030 C.2       1 FUR         0.0264
      8 C4         37.6690   53.6930   78.3500 C.2       1 FUR         0.2248
      9 C5         36.9260   53.7860   77.3400 C.2       1 FUR         0.1754
     10 N2         36.1130   53.9850   76.4430 N.2       1 FUR        -0.0066
     11 N3         35.6940   52.9440   75.5820 N.am      1 FUR         0.0558
     12 C8         34.5700   53.0240   74.8980 C.2       1 FUR         0.5838
     13 O5         33.7560   53.9340   74.8900 O.2       1 FUR        -0.2499
     14 C6         36.4580   51.7210   75.3730 C.2       1 FUR         0.2733
     15 C7         35.5630   50.9720   74.3700 C.2       1 FUR         0.2573
     16 O4         34.4330   51.8160   74.1190 O.3       1 FUR        -0.0790
     17 H1         39.6990   52.1247   79.9645 H         1 FUR         0.0700
     18 H2         38.5672   51.9238   78.0894 H         1 FUR         0.0872
     19 H3         37.5059   53.0725   76.7564 H         1 FUR         0.1412
     20 H4         37.4084   51.4180   75.8099 H         1 FUR         0.1654
     21 H5         35.7518   49.9914   73.9356 H         1 FUR         0.2030
@<TRIPOS>BOND
     1    1    2 2  
     2    2    3 2  
     3    2    4 1  
     4    4    5 1  
     5    4    6 2  
     6    5    8 1  
     7    6    7 1  
     8    7    8 2  
     9    8    9 1  
    10    9   10 2  
    11   10   11 1  
    12   11   12 am 
    13   11   14 am 
    14   12   13 2  
    15   12   16 1  
    16   14   15 2  
    17   15   16 1  
    18    6   17 1  
    19    7   18 1  
    20    9   19 1  
    21   14   20 1  
    22   15   21 1  
@<TRIPOS>SUBSTRUCTURE
     1 FUR         1

