### 
### Created by X-TOOL on Mon Sep 10 21:12:50 2018
### 

@<TRIPOS>MOLECULE
1oba_ligand
   21    20     1     0     0
SMALL
GAST_HUCK


@<TRIPOS>ATOM
      1 C4         32.9120   23.1170   13.1670 C.3       1 CHT         0.0841
      2 C5         34.2250   22.2810   12.8630 C.3       1 CHT        -0.0071
      3 C6         34.5760   19.9460   12.0830 C.3       1 CHT        -0.0417
      4 C7         33.0540   21.3090   10.8190 C.3       1 CHT        -0.0417
      5 C8         35.4380   21.7510   10.7760 C.3       1 CHT        -0.0417
      6 O6         32.0240   22.2520   13.8230 O.3       1 CHT        -0.3898
      7 N1         34.3170   21.3270   11.6480 N.4       1 CHT         0.2385
      8 H1         32.4661   23.4766   12.2280 H         1 CHT         0.0610
      9 H2         33.1505   23.9755   13.8121 H         1 CHT         0.0610
     10 H3         34.4136   21.6654   13.7549 H         1 CHT         0.0837
     11 H4         35.0375   23.0129   12.7441 H         1 CHT         0.0837
     12 H5         34.6368   19.2895   11.2025 H         1 CHT         0.0778
     13 H6         33.7584   19.6080   12.7366 H         1 CHT         0.0778
     14 H7         35.5266   19.9076   12.6352 H         1 CHT         0.0778
     15 H8         32.8271   22.3287   10.4743 H         1 CHT         0.0778
     16 H9         32.2196   20.9344   11.4301 H         1 CHT         0.0778
     17 H10        33.1957   20.6510    9.9490 H         1 CHT         0.0778
     18 H11        35.2680   22.7833   10.4363 H         1 CHT         0.0778
     19 H12        35.4971   21.0831    9.9040 H         1 CHT         0.0778
     20 H13        36.3808   21.7013   11.3405 H         1 CHT         0.0778
     21 H14        31.2204   22.7174   14.0236 H         1 CHT         0.2096
@<TRIPOS>BOND
     1    1    2 1  
     2    1    6 1  
     3    2    7 1  
     4    7    5 1  
     5    7    4 1  
     6    7    3 1  
     7    1    8 1  
     8    1    9 1  
     9    2   10 1  
    10    2   11 1  
    11    3   12 1  
    12    3   13 1  
    13    3   14 1  
    14    4   15 1  
    15    4   16 1  
    16    4   17 1  
    17    5   18 1  
    18    5   19 1  
    19    5   20 1  
    20    6   21 1  
@<TRIPOS>SUBSTRUCTURE
     1 CHT         1

