### 
### Created by X-TOOL on Mon Sep 10 21:12:49 2018
### 

@<TRIPOS>MOLECULE
1obx_ligand
   62    62     1     0     0
SMALL
GAST_HUCK


@<TRIPOS>ATOM
      1 N          28.8690   15.6980    8.9230 N.4       1 ASP         0.2391
      2 CA         27.3970   15.8440    8.8640 C.3       1 ASP         0.0764
      3 C          26.8510   15.5960   10.2500 C.2       1 ASP         0.2285
      4 O          27.4180   15.0050   11.1350 O.2       1 ASP        -0.3906
      5 CB         26.8010   14.8030    7.9380 C.3       1 ASP         0.0607
      6 CG         27.1330   15.0100    6.4830 C.2       1 ASP         0.0425
      7 OD1        28.2670   15.4310    6.0770 O.co2     1 ASP        -0.5686
      8 OD2        26.2710   14.6850    5.6570 O.co2     1 ASP        -0.5686
      9 N          25.6240   16.0290   10.4350 N.am      1 SER        -0.2588
     10 CA         24.9590   15.9060   11.7140 C.3       1 SER         0.1540
     11 C          24.3290   14.4960   11.8580 C.2       1 SER         0.2062
     12 O          23.7640   13.8850   10.9460 O.2       1 SER        -0.3943
     13 CB         23.9300   17.0440   11.8530 C.3       1 SER         0.0843
     14 OG         24.5510   18.3430   11.8830 O.3       1 SER        -0.3903
     15 N          24.4410   13.9960   13.0750 N.am      1 VAL        -0.2634
     16 CA         23.7400   12.7760   13.4770 C.3       1 VAL         0.1332
     17 C          22.5680   13.2180   14.3340 C.2       1 VAL         0.2037
     18 O          22.6790   14.1300   15.1240 O.2       1 VAL        -0.3944
     19 CB         24.6550   11.7390   14.2070 C.3       1 VAL        -0.0063
     20 CG1        25.3530   12.2850   15.3940 C.3       1 VAL        -0.0584
     21 CG2        23.8600   10.5360   14.6390 C.3       1 VAL        -0.0584
     22 N          21.4940   12.4640   14.1980 N.am      1 PHE        -0.2677
     23 CA         20.2480   12.6800   14.9570 C.3       1 PHE         0.1039
     24 C          19.7760   11.4140   15.6120 C.2       1 PHE         0.0621
     25 O          20.2690   10.3470   15.2140 O.co2     1 PHE        -0.5664
     26 CB         19.1570   13.2200   14.0410 C.3       1 PHE         0.0159
     27 CG         19.5160   14.5470   13.4940 C.ar      1 PHE        -0.0392
     28 CD1        20.1660   14.6630   12.2900 C.ar      1 PHE        -0.0602
     29 CD2        19.2960   15.6870   14.2380 C.ar      1 PHE        -0.0602
     30 CE1        20.5620   15.9010   11.8490 C.ar      1 PHE        -0.0686
     31 CE2        19.7240   16.8750   13.7970 C.ar      1 PHE        -0.0686
     32 CZ         20.3580   16.9750   12.5880 C.ar      1 PHE        -0.0687
     33 OXT        18.9510   11.5250   16.5010 O.co2     1 PHE        -0.5664
     34 H1         29.2595   15.8590    8.0078 H         1 ASP         0.2016
     35 H2         29.1023   14.7662    9.2286 H         1 ASP         0.2016
     36 H3         29.2475   16.3694    9.5727 H         1 ASP         0.2016
     37 H4         27.1311   16.8539    8.5184 H         1 ASP         0.1117
     38 H5         25.7069   14.8278    8.0493 H         1 ASP         0.0512
     39 H6         27.1781   13.8151    8.2409 H         1 ASP         0.0512
     40 H7         25.1374   16.4545    9.6720 H         1 SER         0.1885
     41 H8         25.7071   16.0232   12.5119 H         1 SER         0.0823
     42 H9         23.3671   16.8996   12.7870 H         1 SER         0.0606
     43 H10        23.2390   17.0022   10.9982 H         1 SER         0.0606
     44 H11        25.1454   18.3916   12.6225 H         1 SER         0.2097
     45 H12        25.0215   14.4645   13.7410 H         1 VAL         0.1883
     46 H13        23.3494   12.2861   12.5729 H         1 VAL         0.0802
     47 H14        25.4196   11.4117   13.4871 H         1 VAL         0.0343
     48 H15        25.9729   11.4983   15.8489 H         1 VAL         0.0234
     49 H16        24.6111   12.6365   16.1262 H         1 VAL         0.0234
     50 H17        25.9934   13.1255   15.0884 H         1 VAL         0.0234
     51 H18        23.3326   10.1140   13.7708 H         1 VAL         0.0234
     52 H19        23.1275   10.8356   15.4029 H         1 VAL         0.0234
     53 H20        24.5390    9.7792   15.0588 H         1 VAL         0.0234
     54 H21        21.5264   11.7063   13.5462 H         1 PHE         0.1877
     55 H22        20.4474   13.4238   15.7425 H         1 PHE         0.0749
     56 H23        18.2220   13.3104   14.6134 H         1 PHE         0.0467
     57 H24        19.0101   12.5176   13.2073 H         1 PHE         0.0467
     58 H25        20.3653   13.7817   11.6911 H         1 PHE         0.0557
     59 H26        18.7734   15.6200   15.1853 H         1 PHE         0.0557
     60 H27        21.0470   15.9974   10.8843 H         1 PHE         0.0599
     61 H28        19.5681   17.7625   14.3996 H         1 PHE         0.0599
     62 H29        20.6948   17.9431   12.2352 H         1 PHE         0.0559
@<TRIPOS>BOND
     1    2    1 1  
     2    2    5 1  
     3    3    2 1  
     4    3    4 2  
     5    5    6 1  
     6    6    7 ar 
     7    6    8 ar 
     8   10    9 1  
     9   10   13 1  
    10   11   10 1  
    11   11   12 2  
    12   13   14 1  
    13    9    3 am 
    14   16   15 1  
    15   16   19 1  
    16   17   16 1  
    17   17   18 2  
    18   19   21 1  
    19   19   20 1  
    20   15   11 am 
    21   22   23 1  
    22   23   26 1  
    23   23   24 1  
    24   24   25 ar 
    25   24   33 ar 
    26   26   27 1  
    27   27   28 ar 
    28   27   29 ar 
    29   29   31 ar 
    30   31   32 ar 
    31   30   32 ar 
    32   28   30 ar 
    33   17   22 am 
    34    1   34 1  
    35    1   35 1  
    36    1   36 1  
    37    2   37 1  
    38    5   38 1  
    39    5   39 1  
    40    9   40 1  
    41   10   41 1  
    42   13   42 1  
    43   13   43 1  
    44   14   44 1  
    45   15   45 1  
    46   16   46 1  
    47   19   47 1  
    48   20   48 1  
    49   20   49 1  
    50   20   50 1  
    51   21   51 1  
    52   21   52 1  
    53   21   53 1  
    54   22   54 1  
    55   23   55 1  
    56   26   56 1  
    57   26   57 1  
    58   28   58 1  
    59   29   59 1  
    60   30   60 1  
    61   31   61 1  
    62   32   62 1  
@<TRIPOS>SUBSTRUCTURE
     1 ASP         1

