### 
### Created by X-TOOL on Mon Sep 10 21:12:49 2018
### 

@<TRIPOS>MOLECULE
1ocn_ligand
   45    46     1     0     0
SMALL
GAST_HUCK


@<TRIPOS>ATOM
      1 C2          6.2150   -8.7130   10.5050 C.3       1 BGC         0.1341
      2 C3          4.9030   -7.9790   10.5060 C.3       1 BGC         0.1141
      3 C4          4.8260   -6.9260   11.5800 C.3       1 BGC         0.1119
      4 C5          6.1040   -6.0780   11.6390 C.3       1 BGC         0.1130
      5 C6          6.2030   -5.2140   12.8810 C.3       1 BGC         0.0730
      6 C1          7.3710   -7.7060   10.5060 C.3       1 BGC         0.1883
      7 O2          6.3160   -9.5480    9.3540 O.3       1 BGC        -0.3841
      8 O3          3.8600   -8.9320   10.6440 O.3       1 BGC        -0.3864
      9 O4          3.7040   -6.1170   11.3310 O.3       1 BGC        -0.3865
     10 O5          7.2640   -6.9180   11.6680 O.3       1 BGC        -0.3405
     11 O6          6.3080   -6.0140   14.0310 O.3       1 BGC        -0.3924
     12 O4          8.5540   -8.4180   10.5740 O.3       1 IFM        -0.3421
     13 C4          9.7330   -7.6360   10.3530 C.3       1 IFM         0.1023
     14 C3         10.8080   -8.3620   11.1220 C.3       1 IFM         0.1213
     15 O3         10.7660   -7.8270   12.4310 O.3       1 IFM        -0.3839
     16 C2         12.1590   -8.1750   10.4970 C.3       1 IFM        -0.0045
     17 N          12.1420   -8.8210    9.1590 N.4       1 IFM         0.2292
     18 C1         10.9960   -8.4870    8.3170 C.3       1 IFM        -0.0261
     19 C5          9.9600   -7.5030    8.8430 C.3       1 IFM         0.0511
     20 C6         10.3060   -6.0870    8.3660 C.3       1 IFM         0.0543
     21 O6         11.3360   -5.5570    9.1320 O.3       1 IFM        -0.3945
     22 H1          6.2775   -9.3370   11.4087 H         1 IFM         0.0671
     23 H2          4.7897   -7.4745    9.5351 H         1 IFM         0.0648
     24 H3          4.6976   -7.4235   12.5526 H         1 IFM         0.0647
     25 H4          6.1311   -5.4346   10.7472 H         1 IFM         0.0647
     26 H5          5.3029   -4.5864   12.9579 H         1 IFM         0.0584
     27 H6          7.0926   -4.5715   12.8048 H         1 IFM         0.0584
     28 H7          7.3439   -7.0773    9.6038 H         1 IFM         0.0938
     29 H8          7.1436  -10.0140    9.3739 H         1 IFM         0.2101
     30 H9          3.0203   -8.4926   10.5781 H         1 IFM         0.2100
     31 H10         3.6162   -5.4764   12.0270 H         1 IFM         0.2100
     32 H11         6.3690   -5.4572   14.7982 H         1 IFM         0.2095
     33 H12         9.6112   -6.6263   10.7721 H         1 IFM         0.0630
     34 H13        10.5813   -9.4380   11.1518 H         1 IFM         0.0673
     35 H14        11.4272   -8.2500   12.9662 H         1 IFM         0.2101
     36 H15        12.9294   -8.6432   11.1273 H         1 IFM         0.0840
     37 H16        12.3751   -7.1018   10.3901 H         1 IFM         0.0840
     38 H17        12.1470   -9.8197    9.2956 H         1 IFM         0.2014
     39 H18        12.9787   -8.5446    8.6695 H         1 IFM         0.2014
     40 H19        10.4680   -9.4277    8.1019 H         1 IFM         0.0818
     41 H20        11.3940   -8.0676    7.3812 H         1 IFM         0.0818
     42 H21         9.0018   -7.7652    8.3707 H         1 IFM         0.0401
     43 H22         9.4174   -5.4455    8.4598 H         1 IFM         0.0562
     44 H23        10.6206   -6.1260    7.3127 H         1 IFM         0.0562
     45 H24        11.5389   -4.6811    8.8252 H         1 IFM         0.2094
@<TRIPOS>BOND
     1    1    2 1  
     2    1    6 1  
     3    1    7 1  
     4    2    3 1  
     5    2    8 1  
     6    3    4 1  
     7    3    9 1  
     8    4    5 1  
     9    4   10 1  
    10    5   11 1  
    11    6   10 1  
    12    6   12 1  
    13   12   13 1  
    14   13   14 1  
    15   13   19 1  
    16   14   15 1  
    17   14   16 1  
    18   16   17 1  
    19   17   18 1  
    20   18   19 1  
    21   19   20 1  
    22   20   21 1  
    23    1   22 1  
    24    2   23 1  
    25    3   24 1  
    26    4   25 1  
    27    5   26 1  
    28    5   27 1  
    29    6   28 1  
    30    7   29 1  
    31    8   30 1  
    32    9   31 1  
    33   11   32 1  
    34   13   33 1  
    35   14   34 1  
    36   15   35 1  
    37   16   36 1  
    38   16   37 1  
    39   17   38 1  
    40   17   39 1  
    41   18   40 1  
    42   18   41 1  
    43   19   42 1  
    44   20   43 1  
    45   20   44 1  
    46   21   45 1  
@<TRIPOS>SUBSTRUCTURE
     1 BGC         1

