### 
### Created by X-TOOL on Mon Sep 10 21:12:49 2018
### 

@<TRIPOS>MOLECULE
1ocq_ligand
   45    46     1     0     0
SMALL
GAST_HUCK


@<TRIPOS>ATOM
      1 O4         61.9270   45.6490   35.7660 O.3       1 IFM        -0.3421
      2 C4         61.8470   44.2540   35.9900 C.3       1 IFM         0.1023
      3 C3         61.2830   43.6180   34.7100 C.3       1 IFM         0.1213
      4 O3         59.9770   44.0350   34.4270 O.3       1 IFM        -0.3839
      5 C2         61.2400   42.1160   34.8740 C.3       1 IFM        -0.0045
      6 N          62.5770   41.5650   35.2360 N.4       1 IFM         0.2292
      7 C1         63.1310   42.1720   36.4590 C.3       1 IFM        -0.0261
      8 C5         63.2090   43.6850   36.2980 C.3       1 IFM         0.0511
      9 C6         63.9000   44.3040   37.5100 C.3       1 IFM         0.0543
     10 O6         63.1220   44.0620   38.6930 O.3       1 IFM        -0.3945
     11 C2         61.8730   47.8910   36.4770 C.3       1 BGC         0.1341
     12 C3         61.2330   48.8380   37.5040 C.3       1 BGC         0.1141
     13 C4         59.7600   48.5880   37.6170 C.3       1 BGC         0.1119
     14 C5         59.4940   47.1080   37.9400 C.3       1 BGC         0.1130
     15 C6         58.0500   46.7240   38.0380 C.3       1 BGC         0.0730
     16 C1         61.4380   46.4560   36.8300 C.3       1 BGC         0.1883
     17 O2         63.2630   48.0150   36.4470 O.3       1 BGC        -0.3841
     18 O3         61.4440   50.2040   37.0870 O.3       1 BGC        -0.3864
     19 O4         59.1810   49.3900   38.6550 O.3       1 BGC        -0.3865
     20 O5         60.0490   46.3250   36.8800 O.3       1 BGC        -0.3405
     21 O6         57.4030   46.9390   36.7690 O.3       1 BGC        -0.3924
     22 H1         61.1725   44.0520   36.8351 H         1 IFM         0.0630
     23 H2         61.9375   43.8833   33.8666 H         1 IFM         0.0673
     24 H3         59.6773   43.6145   33.6297 H         1 IFM         0.2101
     25 H4         60.9116   41.6627   33.9270 H         1 IFM         0.0840
     26 H5         60.5229   41.8641   35.6692 H         1 IFM         0.0840
     27 H6         63.2137   41.7372   34.4738 H         1 IFM         0.2014
     28 H7         62.4876   40.5715   35.3813 H         1 IFM         0.2014
     29 H8         64.1396   41.7721   36.6399 H         1 IFM         0.0818
     30 H9         62.4816   41.9292   37.3130 H         1 IFM         0.0818
     31 H10        63.8454   43.8960   35.4260 H         1 IFM         0.0401
     32 H11        64.0030   45.3884   37.3568 H         1 IFM         0.0562
     33 H12        64.8966   43.8544   37.6307 H         1 IFM         0.0562
     34 H13        63.5582   44.4500   39.4424 H         1 IFM         0.2094
     35 H14        61.4887   48.1422   35.4774 H         1 IFM         0.0671
     36 H15        61.7034   48.6764   38.4851 H         1 IFM         0.0648
     37 H16        59.2838   48.8413   36.6583 H         1 IFM         0.0647
     38 H17        59.9888   46.8651   38.8919 H         1 IFM         0.0647
     39 H18        57.5596   47.3387   38.8072 H         1 IFM         0.0584
     40 H19        57.9720   45.6617   38.3128 H         1 IFM         0.0584
     41 H20        61.8742   46.1499   37.7923 H         1 IFM         0.0938
     42 H21        63.4953   48.9064   36.2147 H         1 IFM         0.2101
     43 H22        62.3763   50.3709   37.0129 H         1 IFM         0.2100
     44 H23        59.5775   49.1626   39.4878 H         1 IFM         0.2100
     45 H24        57.8263   46.4076   36.1049 H         1 IFM         0.2095
@<TRIPOS>BOND
     1    1    2 1  
     2    2    3 1  
     3    2    8 1  
     4    3    4 1  
     5    3    5 1  
     6    5    6 1  
     7    7    6 1  
     8    8    7 1  
     9    8    9 1  
    10    9   10 1  
    11   16   11 1  
    12   11   12 1  
    13   11   17 1  
    14   12   13 1  
    15   12   18 1  
    16   14   13 1  
    17   13   19 1  
    18   14   15 1  
    19   20   14 1  
    20   15   21 1  
    21   16   20 1  
    22   16    1 1  
    23    2   22 1  
    24    3   23 1  
    25    4   24 1  
    26    5   25 1  
    27    5   26 1  
    28    6   27 1  
    29    6   28 1  
    30    7   29 1  
    31    7   30 1  
    32    8   31 1  
    33    9   32 1  
    34    9   33 1  
    35   10   34 1  
    36   11   35 1  
    37   12   36 1  
    38   13   37 1  
    39   14   38 1  
    40   15   39 1  
    41   15   40 1  
    42   16   41 1  
    43   17   42 1  
    44   18   43 1  
    45   19   44 1  
    46   21   45 1  
@<TRIPOS>SUBSTRUCTURE
     1 IFM         1

