### 
### Created by X-TOOL on Mon Sep 10 21:12:49 2018
### 

@<TRIPOS>MOLECULE
1odi_ligand
   32    34     1     0     0
SMALL
GAST_HUCK


@<TRIPOS>ATOM
      1 O5'        -0.6350  -80.2750 -146.6140 O.3       1 ADN        -0.3924
      2 C5'         0.5970  -80.9160 -146.3410 C.3       1 ADN         0.0730
      3 C4'         1.6660  -79.9270 -146.8450 C.3       1 ADN         0.1135
      4 O4'         1.6620  -78.6220 -146.1490 O.3       1 ADN        -0.3368
      5 C3'         3.0750  -80.4490 -146.6260 C.3       1 ADN         0.1146
      6 O3'         3.8090  -80.1230 -147.8230 O.3       1 ADN        -0.3864
      7 C2'         3.6340  -79.7220 -145.3790 C.3       1 ADN         0.1385
      8 O2'         4.9000  -79.1020 -145.5840 O.3       1 ADN        -0.3836
      9 C1'         2.4670  -78.7730 -144.9650 C.3       1 ADN         0.2010
     10 N9          1.6410  -79.2150 -143.7730 N.pl3     1 ADN        -0.1919
     11 C8          0.5610  -78.4890 -143.2370 C.2       1 ADN         0.1123
     12 N7         -0.0350  -79.0410 -142.2120 N.2       1 ADN        -0.2958
     13 C5          0.6750  -80.2260 -142.0200 C.ar      1 ADN         0.1045
     14 C6          0.5430  -81.3170 -141.0640 C.ar      1 ADN         0.1298
     15 N6         -0.3950  -81.3370 -140.1120 N.pl3     1 ADN        -0.3152
     16 N1          1.4360  -82.3630 -141.1640 N.ar      1 ADN        -0.2698
     17 C2          2.3940  -82.3520 -142.1330 C.ar      1 ADN         0.0533
     18 N3          2.6100  -81.3940 -143.0770 N.ar      1 ADN        -0.2714
     19 C4          1.7160  -80.3590 -142.9690 C.ar      1 ADN         0.1613
     20 H1         -0.6699  -79.4474 -146.1490 H         1 ADN         0.2095
     21 H2          0.6661  -81.8718 -146.8810 H         1 ADN         0.0584
     22 H3          0.7113  -81.0954 -145.2618 H         1 ADN         0.0584
     23 H4          1.4924  -79.7663 -147.9192 H         1 ADN         0.0647
     24 H5          3.0783  -81.5367 -146.4619 H         1 ADN         0.0648
     25 H6          4.7040  -80.4300 -147.7378 H         1 ADN         0.2100
     26 H7          3.7799  -80.4603 -144.5767 H         1 ADN         0.0676
     27 H8          4.8261  -78.4546 -146.2753 H         1 ADN         0.2101
     28 H9          2.9006  -77.7963 -144.7041 H         1 ADN         0.0996
     29 H10         0.2430  -77.5320 -143.6481 H         1 ADN         0.1349
     30 H11        -0.4486  -82.1313 -139.4584 H         1 ADN         0.1820
     31 H12        -1.0642  -80.5581 -140.0319 H         1 ADN         0.1820
     32 H13         3.0622  -83.2052 -142.1552 H         1 ADN         0.0996
@<TRIPOS>BOND
     1    1    2 1  
     2    2    3 1  
     3    3    4 1  
     4    3    5 1  
     5    4    9 1  
     6    5    6 1  
     7    5    7 1  
     8    7    8 1  
     9    7    9 1  
    10    9   10 1  
    11   10   11 1  
    12   10   19 1  
    13   11   12 2  
    14   12   13 1  
    15   13   14 ar 
    16   13   19 ar 
    17   14   15 1  
    18   14   16 ar 
    19   16   17 ar 
    20   17   18 ar 
    21   18   19 ar 
    22    1   20 1  
    23    2   21 1  
    24    2   22 1  
    25    3   23 1  
    26    5   24 1  
    27    6   25 1  
    28    7   26 1  
    29    8   27 1  
    30    9   28 1  
    31   11   29 1  
    32   15   30 1  
    33   15   31 1  
    34   17   32 1  
@<TRIPOS>SUBSTRUCTURE
     1 ADN         1

