### 
### Created by X-TOOL on Mon Sep 10 21:12:50 2018
### 

@<TRIPOS>MOLECULE
1odj_ligand
   33    35     1     0     0
SMALL
GAST_HUCK


@<TRIPOS>ATOM
      1 O5         -0.9440  -80.5800 -147.7660 O.3       1 GMP        -0.3924
      2 C5          0.2920  -81.2070 -147.4800 C.3       1 GMP         0.0730
      3 C4          1.3310  -80.2020 -147.9780 C.3       1 GMP         0.1136
      4 O4          1.2970  -78.8900 -147.3070 O.3       1 GMP        -0.3367
      5 C3          2.7630  -80.6770 -147.7670 C.3       1 GMP         0.1146
      6 O3          3.4690  -80.3250 -148.9910 O.3       1 GMP        -0.3864
      7 C2          3.3170  -79.9050 -146.5450 C.3       1 GMP         0.1386
      8 O2          4.5840  -79.2700 -146.7520 O.3       1 GMP        -0.3836
      9 C1          2.1360  -78.9680 -146.1380 C.3       1 GMP         0.1992
     10 N9          1.3810  -79.3580 -144.8990 N.pl3     1 GMP        -0.2101
     11 C8          0.3730  -78.6000 -144.3460 C.2       1 GMP         0.0957
     12 N7         -0.1430  -79.1270 -143.2740 N.2       1 GMP        -0.3235
     13 C5          0.5570  -80.3140 -143.0910 C.2       1 GMP         0.0926
     14 C6          0.4250  -81.3130 -142.0760 C.2       1 GMP         0.2135
     15 O6         -0.3620  -81.3440 -141.1160 O.2       1 GMP        -0.4091
     16 N1          1.3250  -82.3540 -142.2610 N.am      1 GMP        -0.1839
     17 C2          2.2380  -82.4320 -143.2770 C.2       1 GMP         0.2340
     18 N2          3.0130  -83.5290 -143.2710 N.pl3     1 GMP        -0.2807
     19 N3          2.3790  -81.5090 -144.2340 N.2       1 GMP        -0.2765
     20 C4          1.5090  -80.4810 -144.0790 C.2       1 GMP         0.1159
     21 H1         -1.6558  -81.1430 -147.4853 H         1 GMP         0.2095
     22 H2          0.3811  -82.1624 -148.0178 H         1 GMP         0.0584
     23 H3          0.4023  -81.3826 -146.3997 H         1 GMP         0.0584
     24 H4          1.1510  -80.0565 -149.0534 H         1 GMP         0.0647
     25 H5          2.8099  -81.7615 -147.5889 H         1 GMP         0.0648
     26 H6          4.3764  -80.5977 -148.9215 H         1 GMP         0.2100
     27 H7          3.4745  -80.6247 -145.7282 H         1 GMP         0.0676
     28 H8          5.2330  -79.9264 -146.9763 H         1 GMP         0.2101
     29 H9          2.5526  -77.9689 -145.9428 H         1 GMP         0.0998
     30 H10         0.0401  -77.6516 -144.7652 H         1 GMP         0.1179
     31 H11         1.3043  -83.1047 -141.6007 H         1 GMP         0.2515
     32 H12         3.7249  -83.6606 -144.0036 H         1 GMP         0.1897
     33 H13         2.8954  -84.2386 -142.5338 H         1 GMP         0.1897
@<TRIPOS>BOND
     1    1    2 1  
     2    2    3 1  
     3    3    4 1  
     4    3    5 1  
     5    4    9 1  
     6    5    6 1  
     7    5    7 1  
     8    7    8 1  
     9    7    9 1  
    10    9   10 1  
    11   10   11 1  
    12   10   20 1  
    13   11   12 2  
    14   12   13 1  
    15   13   14 1  
    16   13   20 2  
    17   14   15 2  
    18   14   16 am 
    19   16   17 1  
    20   17   18 1  
    21   17   19 2  
    22   19   20 1  
    23    1   21 1  
    24    2   22 1  
    25    2   23 1  
    26    3   24 1  
    27    5   25 1  
    28    6   26 1  
    29    7   27 1  
    30    8   28 1  
    31    9   29 1  
    32   11   30 1  
    33   16   31 1  
    34   18   32 1  
    35   18   33 1  
@<TRIPOS>SUBSTRUCTURE
     1 GMP         1

