### 
### Created by X-TOOL on Mon Sep 10 21:12:50 2018
### 

@<TRIPOS>MOLECULE
1oe7_ligand
   36    35     1     0     0
SMALL
GAST_HUCK


@<TRIPOS>ATOM
      1 N1         14.8630   -4.0250   22.4510 N.4       1 GSH         0.2328
      2 CA1        14.3820   -2.6530   22.7040 C.3       1 GSH         0.0304
      3 C1         14.5290   -1.8350   21.3620 C.2       1 GSH         0.0846
      4 O11        13.8360   -0.8410   21.2000 O.co2     1 GSH        -0.5643
      5 O12        15.4300   -2.2800   20.5380 O.co2     1 GSH        -0.5643
      6 CB1        15.3560   -2.0310   23.7310 C.3       1 GSH         0.0193
      7 CG1        14.9450   -0.6290   24.2850 C.3       1 GSH         0.0441
      8 CD1        16.0630   -0.3190   25.3160 C.2       1 GSH         0.1785
      9 OE1        16.7630   -1.2510   25.8620 O.2       1 GSH        -0.3969
     10 N2         16.2560    0.9790   25.5300 N.am      1 GSH        -0.2648
     11 CA2        17.2210    1.4140   26.5010 C.3       1 GSH         0.1395
     12 C2         16.5470    2.4560   27.4640 C.2       1 GSH         0.2039
     13 O2         15.5230    3.0980   27.1510 O.2       1 GSH        -0.3944
     14 CB2        18.3580    2.1160   25.7350 C.3       1 GSH         0.0311
     15 SG2        18.4730    1.9460   23.9020 S.3       1 GSH        -0.1735
     16 N3         17.0560    2.6520   28.7280 N.am      1 GSH        -0.2722
     17 CA3        16.5370    3.6630   29.6770 C.3       1 GSH         0.0833
     18 C3         15.4590    3.3710   30.6740 C.2       1 GSH         0.0570
     19 O31        15.3110    3.9700   31.8100 O.co2     1 GSH        -0.5669
     20 O32        14.7130    2.4660   30.2070 O.co2     1 GSH        -0.5669
     21 H1         14.7801   -4.5709   23.2943 H         1 GSH         0.2010
     22 H2         15.8288   -3.9949   22.1638 H         1 GSH         0.2010
     23 H3         14.3087   -4.4464   21.7221 H         1 GSH         0.2010
     24 H4         13.3444   -2.6465   23.0691 H         1 GSH         0.1026
     25 H5         16.3388   -1.9294   23.2475 H         1 GSH         0.0363
     26 H6         15.4363   -2.7218   24.5833 H         1 GSH         0.0363
     27 H7         13.9592   -0.6696   24.7713 H         1 GSH         0.0505
     28 H8         14.9275    0.1234   23.4828 H         1 GSH         0.0505
     29 H9         15.7283    1.6537   25.0139 H         1 GSH         0.1883
     30 H10        17.6079    0.5580   27.0734 H         1 GSH         0.0808
     31 H11        19.3032    1.7356   26.1496 H         1 GSH         0.0422
     32 H12        18.2698    3.1912   25.9498 H         1 GSH         0.0422
     33 H13        17.6325    2.3073   23.4788 H         1 GSH         0.1019
     34 H14        17.8205    2.0784   29.0222 H         1 GSH         0.1873
     35 H15        16.1617    4.4927   29.0599 H         1 GSH         0.0689
     36 H16        17.4048    4.0036   30.2608 H         1 GSH         0.0689
@<TRIPOS>BOND
     1    1    2 1  
     2    2    3 1  
     3    2    6 1  
     4    3    4 ar 
     5    3    5 ar 
     6    6    7 1  
     7    7    8 1  
     8    8    9 2  
     9    8   10 am 
    10   10   11 1  
    11   11   12 1  
    12   11   14 1  
    13   12   13 2  
    14   12   16 am 
    15   14   15 1  
    16   16   17 1  
    17   17   18 1  
    18   18   19 ar 
    19   18   20 ar 
    20    1   21 1  
    21    1   22 1  
    22    1   23 1  
    23    2   24 1  
    24    6   25 1  
    25    6   26 1  
    26    7   27 1  
    27    7   28 1  
    28   10   29 1  
    29   11   30 1  
    30   14   31 1  
    31   14   32 1  
    32   15   33 1  
    33   16   34 1  
    34   17   35 1  
    35   17   36 1  
@<TRIPOS>SUBSTRUCTURE
     1 GSH         1

