### 
### Created by X-TOOL on Mon Sep 10 21:12:50 2018
### 

@<TRIPOS>MOLECULE
1oe8_ligand
   36    35     1     0     0
SMALL
GAST_HUCK


@<TRIPOS>ATOM
      1 N1         15.0660   -4.0860   22.2650 N.4       1 GSH         0.2328
      2 CA1        14.6520   -2.6740   22.7050 C.3       1 GSH         0.0304
      3 C1         14.7280   -1.8090   21.3790 C.2       1 GSH         0.0846
      4 O11        14.0200   -0.8370   21.1870 O.co2     1 GSH        -0.5643
      5 O12        15.5450   -2.3440   20.5710 O.co2     1 GSH        -0.5643
      6 CB1        15.7730   -2.1280   23.6290 C.3       1 GSH         0.0193
      7 CG1        15.3630   -0.7590   24.2500 C.3       1 GSH         0.0441
      8 CD1        16.3750   -0.3640   25.3180 C.2       1 GSH         0.1785
      9 OE1        17.1410   -1.1950   25.9190 O.2       1 GSH        -0.3969
     10 N2         16.4990    0.9440   25.5880 N.am      1 GSH        -0.2648
     11 CA2        17.4370    1.2270   26.6510 C.3       1 GSH         0.1395
     12 C2         16.6940    2.3350   27.5300 C.2       1 GSH         0.2039
     13 O2         15.7380    2.9700   27.1000 O.2       1 GSH        -0.3944
     14 CB2        18.6290    2.0520   26.0840 C.3       1 GSH         0.0311
     15 SG2        19.4780    1.0670   24.8360 S.3       1 GSH        -0.1735
     16 N3         17.2050    2.5640   28.7640 N.am      1 GSH        -0.2722
     17 CA3        16.5300    3.5880   29.5800 C.3       1 GSH         0.0833
     18 C3         15.6780    2.9400   30.6650 C.2       1 GSH         0.0570
     19 O31        15.2190    3.7020   31.5620 O.co2     1 GSH        -0.5669
     20 O32        15.5390    1.6870   30.6260 O.co2     1 GSH        -0.5669
     21 H1         15.0436   -4.7056   23.0597 H         1 GSH         0.2010
     22 H2         15.9996   -4.0596   21.8858 H         1 GSH         0.2010
     23 H3         14.4265   -4.4195   21.5608 H         1 GSH         0.2010
     24 H4         13.6614   -2.6487   23.1826 H         1 GSH         0.1026
     25 H5         16.6926   -1.9955   23.0402 H         1 GSH         0.0363
     26 H6         15.9565   -2.8501   24.4382 H         1 GSH         0.0363
     27 H7         14.3651   -0.8464   24.7046 H         1 GSH         0.0505
     28 H8         15.3415    0.0092   23.4630 H         1 GSH         0.0505
     29 H9         15.9915    1.6548   25.1010 H         1 GSH         0.1883
     30 H10        17.7459    0.3279   27.2044 H         1 GSH         0.0808
     31 H11        19.3272    2.2992   26.8973 H         1 GSH         0.0422
     32 H12        18.2527    2.9801   25.6290 H         1 GSH         0.0422
     33 H13        19.8200    0.2170   25.2561 H         1 GSH         0.1019
     34 H14        18.0008    2.0628   29.1038 H         1 GSH         0.1873
     35 H15        15.8847    4.1985   28.9313 H         1 GSH         0.0689
     36 H16        17.2880    4.2303   30.0522 H         1 GSH         0.0689
@<TRIPOS>BOND
     1    1    2 1  
     2    2    3 1  
     3    2    6 1  
     4    3    4 ar 
     5    3    5 ar 
     6    6    7 1  
     7    7    8 1  
     8    8    9 2  
     9    8   10 am 
    10   10   11 1  
    11   11   12 1  
    12   11   14 1  
    13   12   13 2  
    14   12   16 am 
    15   14   15 1  
    16   16   17 1  
    17   17   18 1  
    18   18   19 ar 
    19   18   20 ar 
    20    1   21 1  
    21    1   22 1  
    22    1   23 1  
    23    2   24 1  
    24    6   25 1  
    25    6   26 1  
    26    7   27 1  
    27    7   28 1  
    28   10   29 1  
    29   11   30 1  
    30   14   31 1  
    31   14   32 1  
    32   15   33 1  
    33   16   34 1  
    34   17   35 1  
    35   17   36 1  
@<TRIPOS>SUBSTRUCTURE
     1 GSH         1

