### 
### Created by X-TOOL on Sun Sep  9 21:50:03 2018
### 

@<TRIPOS>MOLECULE
1ofz_ligand
   23    23     1     0     0
SMALL
GAST_HUCK


@<TRIPOS>ATOM
      1 C1         26.1910   39.5350   36.7490 C.3       1 NON         0.1853
      2 C2         26.7860   38.6170   37.8200 C.3       1 NON         0.1339
      3 O2         25.7490   37.6980   38.2290 O.3       1 NON        -0.3841
      4 C3         27.9850   37.8500   37.2840 C.3       1 NON         0.1140
      5 O3         28.5020   36.9650   38.2670 O.3       1 NON        -0.3864
      6 C4         29.0330   38.8200   36.7580 C.3       1 NON         0.1095
      7 O4         29.6500   39.5520   37.7810 O.3       1 NON        -0.3866
      8 C5         28.3190   39.7260   35.7560 C.3       1 NON         0.0873
      9 C6         29.3000   40.7080   35.1150 C.3       1 NON        -0.0361
     10 O5         27.2980   40.4370   36.4820 O.3       1 NON        -0.3433
     11 O1         25.2380   40.4350   37.2690 O.3       1 NON        -0.3649
     12 H1         25.8197   38.9793   35.8753 H         1 NON         0.0935
     13 H2         27.1060   39.2205   38.6822 H         1 NON         0.0671
     14 H3         25.4626   37.1911   37.4784 H         1 NON         0.2101
     15 H4         27.6439   37.2375   36.4363 H         1 NON         0.0648
     16 H5         28.7736   37.4634   39.0288 H         1 NON         0.2100
     17 H6         29.8143   38.2506   36.2332 H         1 NON         0.0646
     18 H7         30.0798   38.9544   38.3816 H         1 NON         0.2100
     19 H8         27.8570   39.1144   34.9670 H         1 NON         0.0621
     20 H9         28.7632   41.3478   34.3991 H         1 NON         0.0255
     21 H10        30.0872   40.1487   34.5882 H         1 NON         0.0255
     22 H11        29.7554   41.3341   35.8964 H         1 NON         0.0255
     23 H12        25.0413   41.0977   36.6173 H         1 NON         0.2126
@<TRIPOS>BOND
     1    1    2 1  
     2    1   10 1  
     3    1   11 1  
     4    2    3 1  
     5    2    4 1  
     6    4    5 1  
     7    4    6 1  
     8    6    7 1  
     9    6    8 1  
    10    8    9 1  
    11    8   10 1  
    12    1   12 1  
    13    2   13 1  
    14    3   14 1  
    15    4   15 1  
    16    5   16 1  
    17    6   17 1  
    18    7   18 1  
    19    8   19 1  
    20    9   20 1  
    21    9   21 1  
    22    9   22 1  
    23   11   23 1  
@<TRIPOS>SUBSTRUCTURE
     1 NON         1

