### 
### Created by X-TOOL on Sun Sep  9 21:50:04 2018
### 

@<TRIPOS>MOLECULE
1ogd_ligand
   20    20     1     0     0
SMALL
GAST_HUCK


@<TRIPOS>ATOM
      1 C1         51.0970   36.4020   26.1760 C.3       1 NON         0.1850
      2 C2         51.5540   37.7740   25.7480 C.3       1 NON         0.1339
      3 C3         50.6340   38.8280   26.3390 C.3       1 NON         0.1137
      4 C4         50.4810   38.7330   27.8500 C.3       1 NON         0.1069
      5 C5         50.0230   37.3150   28.1830 C.3       1 NON         0.0792
      6 O1         49.8760   36.0550   25.5550 O.3       1 NON        -0.3649
      7 O2         52.8780   37.9420   26.1990 O.3       1 NON        -0.3841
      8 O3         51.0590   40.1150   25.9700 O.3       1 NON        -0.3864
      9 O4         51.7110   38.9730   28.5000 O.3       1 NON        -0.3869
     10 O5         50.8790   36.3050   27.6080 O.3       1 NON        -0.3462
     11 H1         51.8715   35.6778   25.8832 H         1 NON         0.0935
     12 H2         51.5282   37.8494   24.6509 H         1 NON         0.0671
     13 H3         49.6371   38.6668   25.9029 H         1 NON         0.0647
     14 H4         49.7344   39.4640   28.1939 H         1 NON         0.0643
     15 H5         49.0031   37.1743   27.7958 H         1 NON         0.0587
     16 H6         50.0202   37.1934   29.2762 H         1 NON         0.0587
     17 H7         49.6370   35.1693   25.8018 H         1 NON         0.2126
     18 H8         53.1933   38.7999   25.9396 H         1 NON         0.2101
     19 H9         51.1498   40.1586   25.0253 H         1 NON         0.2100
     20 H10        52.3558   38.3447   28.1971 H         1 NON         0.2100
@<TRIPOS>BOND
     1    1    2 1  
     2    1    6 1  
     3    1   10 1  
     4    2    3 1  
     5    2    7 1  
     6    3    4 1  
     7    3    8 1  
     8    4    5 1  
     9    4    9 1  
    10    5   10 1  
    11    1   11 1  
    12    2   12 1  
    13    3   13 1  
    14    4   14 1  
    15    5   15 1  
    16    5   16 1  
    17    6   17 1  
    18    7   18 1  
    19    8   19 1  
    20    9   20 1  
@<TRIPOS>SUBSTRUCTURE
     1 NON         1

