### 
### Created by X-TOOL on Mon Sep 10 21:12:51 2018
### 

@<TRIPOS>MOLECULE
1ogg_ligand
   86    89     1     0     0
SMALL
GAST_HUCK


@<TRIPOS>ATOM
      1 C1         12.9630   37.1140  104.7490 C.3       1 NAA         0.1854
      2 C2         11.5400   36.5410  104.5400 C.3       1 NAA         0.1210
      3 C3         11.1830   35.5080  105.6220 C.3       1 NAA         0.1111
      4 C4         12.3130   34.4830  105.8290 C.3       1 NAA         0.1116
      5 C5         13.6480   35.2040  106.0570 C.3       1 NAA         0.1130
      6 C6         14.7660   34.1710  106.2210 C.3       1 NAA         0.0730
      7 C7         10.1590   38.3260  103.5710 C.2       1 NAA         0.1733
      8 C8          9.1330   39.4220  103.8860 C.3       1 NAA         0.0257
      9 N2         10.5610   37.6330  104.6240 N.am      1 NAA        -0.2766
     10 O3         10.8960   36.1760  106.8500 O.3       1 NAA        -0.3867
     11 O4         12.0130   33.6660  106.9720 O.3       1 NAA        -0.3865
     12 O5         13.9310   36.0380  104.9060 O.3       1 NAA        -0.3408
     13 O6         16.0040   34.8450  106.4560 O.3       1 NAA        -0.3924
     14 O7         10.5620   38.1320  102.4240 O.2       1 NAA        -0.3974
     15 C1         16.7650   40.4570  103.3920 C.3       1 NAA         0.1853
     16 C2         16.8830   39.2580  104.3450 C.3       1 NAA         0.1210
     17 C3         15.7950   38.2250  104.0160 C.3       1 NAA         0.1114
     18 C4         14.3840   38.8900  103.9920 C.3       1 NAA         0.1181
     19 C5         14.4110   40.0720  103.0110 C.3       1 NAA         0.1134
     20 C6         13.0660   40.8070  102.9920 C.3       1 NAA         0.0730
     21 C7         19.1370   38.6190  105.0800 C.2       1 NAA         0.1733
     22 C8         20.5360   38.0860  104.7480 C.3       1 NAA         0.0257
     23 N2         18.2210   38.6740  104.1160 N.am      1 NAA        -0.2766
     24 O3         16.0820   37.6620  102.7330 O.3       1 NAA        -0.3867
     25 O4         13.3390   37.9400  103.6140 O.3       1 NAA        -0.3404
     26 O5         15.4330   41.0320  103.4000 O.3       1 NAA        -0.3408
     27 O6         13.1460   41.8690  102.0280 O.3       1 NAA        -0.3924
     28 O7         18.8890   39.0400  106.2150 O.2       1 NAA        -0.3974
     29 C1         19.3240   44.4340  102.3590 C.3       1 AMI         0.1138
     30 C2         17.8210   44.6760  101.9940 C.3       1 AMI         0.1538
     31 C3         17.0460   43.5900  102.7400 C.3       1 AMI         0.1281
     32 C4         17.9880   42.3860  102.8000 C.3       1 AMI         0.0995
     33 C5         19.2770   43.1030  103.1380 C.3       1 AMI         0.0415
     34 C6         20.5230   42.2160  102.9550 C.3       1 AMI         0.0520
     35 C7         18.6070   46.3770  103.3090 C.cat     1 AMI         0.3581
     36 C8         19.8310   47.9440  104.7160 C.3       1 AMI         0.0801
     37 C9         17.4440   48.4260  104.0000 C.3       1 AMI         0.0801
     38 N2         17.5590   45.9740  102.5980 N.pl3     1 AMI        -0.2303
     39 N7         18.6240   47.5330  103.9970 N.pl3     1 AMI        -0.2309
     40 O3         15.8700   43.2600  102.0090 O.3       1 AMI        -0.3844
     41 O4         17.7060   41.4210  103.8300 O.3       1 AMI        -0.3425
     42 O6         20.5490   41.6970  101.6170 O.3       1 AMI        -0.3946
     43 O7         19.6680   45.5100  103.3080 O.3       1 AMI        -0.3125
     44 H1         12.9660   37.7320  105.6590 H         1 NAA         0.0935
     45 H2         11.4854   36.0659  103.5494 H         1 NAA         0.0633
     46 H3         10.2823   34.9661  105.2980 H         1 NAA         0.0645
     47 H4         12.3927   33.8464  104.9355 H         1 NAA         0.0647
     48 H5         13.5843   35.8268  106.9615 H         1 NAA         0.0647
     49 H6         14.8450   33.5671  105.3050 H         1 NAA         0.0584
     50 H7         14.5375   33.5152  107.0740 H         1 NAA         0.0584
     51 H8          8.8571   39.9437  102.9577 H         1 NAA         0.0467
     52 H9          9.5702   40.1409  104.5945 H         1 NAA         0.0467
     53 H10         8.2359   38.9674  104.3316 H         1 NAA         0.0467
     54 H11        10.1803   37.8635  105.5195 H         1 NAA         0.1857
     55 H12        10.6243   35.5386  107.5000 H         1 NAA         0.2100
     56 H13        11.9505   34.2151  107.7447 H         1 NAA         0.2100
     57 H14        16.2000   35.4111  105.7187 H         1 NAA         0.2095
     58 H15        17.0070   40.1358  102.3682 H         1 NAA         0.0935
     59 H16        16.7809   39.5855  105.3901 H         1 NAA         0.0633
     60 H17        15.8050   37.4311  104.7774 H         1 NAA         0.0645
     61 H18        14.1578   39.2685  104.9997 H         1 NAA         0.0650
     62 H19        14.6313   39.6904  102.0031 H         1 NAA         0.0647
     63 H20        12.8558   41.2239  103.9880 H         1 NAA         0.0584
     64 H21        12.2643   40.1085  102.7102 H         1 NAA         0.0584
     65 H22        21.1616   38.1097  105.6525 H         1 NAA         0.0467
     66 H23        20.9928   38.7149  103.9697 H         1 NAA         0.0467
     67 H24        20.4572   37.0511  104.3837 H         1 NAA         0.0467
     68 H25        18.4444   38.3101  103.2117 H         1 NAA         0.1857
     69 H26        15.4272   37.0068  102.5223 H         1 NAA         0.2100
     70 H27        12.3189   42.3358  102.0034 H         1 NAA         0.2095
     71 H28        19.9948   44.4039  101.4877 H         1 NAA         0.0644
     72 H29        17.6199   44.6614  100.9126 H         1 NAA         0.0888
     73 H30        16.7768   43.9249  103.7526 H         1 NAA         0.0668
     74 H31        18.0345   41.8731  101.8280 H         1 NAA         0.0629
     75 H32        19.2374   43.3582  104.2072 H         1 NAA         0.0376
     76 H33        20.4876   41.3818  103.6711 H         1 NAA         0.0561
     77 H34        21.4285   42.8144  103.1337 H         1 NAA         0.0561
     78 H35        19.6510   48.9085  105.2133 H         1 NAA         0.0761
     79 H36        20.6639   48.0479  104.0050 H         1 NAA         0.0761
     80 H37        20.0852   47.1845  105.4700 H         1 NAA         0.0761
     81 H38        16.6337   47.9648  103.4163 H         1 NAA         0.0761
     82 H39        17.7148   49.3930  103.5510 H         1 NAA         0.0761
     83 H40        17.1063   48.5840  105.0349 H         1 NAA         0.0761
     84 H41        16.6837   46.5059  102.4896 H         1 NAA         0.3231
     85 H42        15.4248   42.5378  102.4367 H         1 NAA         0.2101
     86 H43        21.3178   41.1502  101.5055 H         1 NAA         0.2094
@<TRIPOS>BOND
     1    1    2 1  
     2    1   12 1  
     3   25    1 1  
     4    2    3 1  
     5    2    9 1  
     6    3    4 1  
     7    3   10 1  
     8    5    4 1  
     9    4   11 1  
    10    5    6 1  
    11   12    5 1  
    12    6   13 1  
    13    7    8 1  
    14    9    7 am 
    15    7   14 2  
    16   15   16 1  
    17   15   26 1  
    18   41   15 1  
    19   16   17 1  
    20   16   23 1  
    21   17   18 1  
    22   17   24 1  
    23   19   18 1  
    24   18   25 1  
    25   19   20 1  
    26   26   19 1  
    27   20   27 1  
    28   21   22 1  
    29   23   21 am 
    30   21   28 2  
    31   29   30 1  
    32   33   29 1  
    33   29   43 1  
    34   31   30 1  
    35   30   38 1  
    36   32   31 1  
    37   31   40 1  
    38   32   33 1  
    39   32   41 1  
    40   33   34 1  
    41   34   42 1  
    42   38   35 ar 
    43   35   39 ar 
    44   35   43 1  
    45   39   36 1  
    46   39   37 1  
    47    1   44 1  
    48    2   45 1  
    49    3   46 1  
    50    4   47 1  
    51    5   48 1  
    52    6   49 1  
    53    6   50 1  
    54    8   51 1  
    55    8   52 1  
    56    8   53 1  
    57    9   54 1  
    58   10   55 1  
    59   11   56 1  
    60   13   57 1  
    61   15   58 1  
    62   16   59 1  
    63   17   60 1  
    64   18   61 1  
    65   19   62 1  
    66   20   63 1  
    67   20   64 1  
    68   22   65 1  
    69   22   66 1  
    70   22   67 1  
    71   23   68 1  
    72   24   69 1  
    73   27   70 1  
    74   29   71 1  
    75   30   72 1  
    76   31   73 1  
    77   32   74 1  
    78   33   75 1  
    79   34   76 1  
    80   34   77 1  
    81   36   78 1  
    82   36   79 1  
    83   36   80 1  
    84   37   81 1  
    85   37   82 1  
    86   37   83 1  
    87   38   84 1  
    88   40   85 1  
    89   42   86 1  
@<TRIPOS>SUBSTRUCTURE
     1 NAA         1

