### 
### Created by X-TOOL on Mon Sep 10 21:12:50 2018
### 

@<TRIPOS>MOLECULE
1ogu_ligand
   49    51     1     0     0
SMALL
GAST_HUCK


@<TRIPOS>ATOM
      1 C2          8.1150   44.0090   50.1340 C.ar      1 ST8         0.1941
      2 C10         4.9720   45.6540   52.1340 C.3       1 ST8         0.0824
      3 C11         4.0940   46.0910   53.2750 C.3       1 ST8        -0.0117
      4 C12         4.4890   45.3070   54.5190 C.3       1 ST8        -0.0476
      5 C13         3.7100   45.9150   55.6640 C.3       1 ST8        -0.0527
      6 C14         2.2170   45.7590   55.3730 C.3       1 ST8        -0.0530
      7 C15         1.7810   46.3390   54.0160 C.3       1 ST8        -0.0527
      8 C16         2.6560   45.7820   52.9060 C.3       1 ST8        -0.0476
      9 C19         4.9870   41.2530   47.8170 C.ar      1 ST8        -0.0509
     10 C20         4.1540   41.0870   48.9220 C.ar      1 ST8         0.0381
     11 C21         4.5610   41.6250   50.1570 C.ar      1 ST8        -0.0509
     12 C22         5.7900   42.2830   50.3020 C.ar      1 ST8        -0.0312
     13 N26         2.1510   39.6020   49.7020 N.am      1 ST8        -0.3017
     14 N1          7.1150   44.5470   50.8480 N.ar      1 ST8        -0.2290
     15 C6          7.3310   45.4640   51.7970 C.ar      1 ST8         0.2027
     16 O6          6.2980   46.0820   52.4220 O.3       1 ST8        -0.2856
     17 C5          8.7030   45.8820   52.0690 C.ar      1 ST8         0.2102
     18 N7          8.9360   46.8120   53.0650 N.2       1 ST8        -0.0705
     19 N9         11.0530   45.5440   51.4460 N.pl3     1 ST8        -0.3107
     20 C4          9.7580   45.2450   51.2570 C.ar      1 ST8         0.1487
     21 N3          9.4010   44.3350   50.3150 N.ar      1 ST8        -0.2388
     22 N2          7.8200   43.0850   49.2250 N.pl3     1 ST8        -0.2387
     23 C17         6.6060   42.4350   49.1790 C.ar      1 ST8         0.0730
     24 C18         6.1890   41.9060   47.9570 C.ar      1 ST8        -0.0312
     25 C23         2.8010   40.4090   48.7280 C.2       1 ST8         0.1941
     26 O24        10.0670   47.1740   53.2960 O.2       1 ST8        -0.2683
     27 O25         2.2040   40.6390   47.6830 O.2       1 ST8        -0.3902
     28 H1          4.6251   46.1134   51.1967 H         1 ST8         0.0634
     29 H2          4.9442   44.5586   52.0378 H         1 ST8         0.0634
     30 H3          4.2132   47.1692   53.4574 H         1 ST8         0.0328
     31 H4          5.5698   45.3995   54.7012 H         1 ST8         0.0269
     32 H5          4.2267   44.2454   54.4003 H         1 ST8         0.0269
     33 H6          3.9601   46.9821   55.7575 H         1 ST8         0.0265
     34 H7          3.9615   45.3960   56.6007 H         1 ST8         0.0265
     35 H8          1.6542   46.2732   56.1660 H         1 ST8         0.0265
     36 H9          1.9721   44.6867   55.3858 H         1 ST8         0.0265
     37 H10         1.8774   47.4345   54.0404 H         1 ST8         0.0265
     38 H11         0.7325   46.0674   53.8240 H         1 ST8         0.0265
     39 H12         2.5131   44.6945   52.8225 H         1 ST8         0.0269
     40 H13         2.4010   46.2599   51.9487 H         1 ST8         0.0269
     41 H14         4.6878   40.8680   46.8488 H         1 ST8         0.0641
     42 H15         3.9082   41.5282   51.0170 H         1 ST8         0.0641
     43 H16         6.1010   42.6664   51.2670 H         1 ST8         0.0554
     44 H17         1.2624   39.1910   49.4985 H         1 ST8         0.1805
     45 H18         2.5826   39.4455   50.5904 H         1 ST8         0.1805
     46 H19        11.7759   45.0896   50.8699 H         1 ST8         0.1854
     47 H20        11.3237   46.2278   52.1671 H         1 ST8         0.1854
     48 H21         8.5327   42.8435   48.5217 H         1 ST8         0.2229
     49 H22         6.8325   42.0131   47.0913 H         1 ST8         0.0554
@<TRIPOS>BOND
     1    1   14 ar 
     2    1   21 ar 
     3   22    1 1  
     4    2    3 1  
     5   16    2 1  
     6    3    4 1  
     7    3    8 1  
     8    4    5 1  
     9    5    6 1  
    10    7    6 1  
    11    8    7 1  
    12   10    9 ar 
    13    9   24 ar 
    14   11   10 ar 
    15   10   25 1  
    16   12   11 ar 
    17   23   12 ar 
    18   25   13 am 
    19   14   15 ar 
    20   15   16 1  
    21   15   17 ar 
    22   17   18 1  
    23   20   17 ar 
    24   18   26 2  
    25   20   19 1  
    26   21   20 ar 
    27   22   23 1  
    28   23   24 ar 
    29   25   27 2  
    30    2   28 1  
    31    2   29 1  
    32    3   30 1  
    33    4   31 1  
    34    4   32 1  
    35    5   33 1  
    36    5   34 1  
    37    6   35 1  
    38    6   36 1  
    39    7   37 1  
    40    7   38 1  
    41    8   39 1  
    42    8   40 1  
    43    9   41 1  
    44   11   42 1  
    45   12   43 1  
    46   13   44 1  
    47   13   45 1  
    48   19   46 1  
    49   19   47 1  
    50   22   48 1  
    51   24   49 1  
@<TRIPOS>SUBSTRUCTURE
     1 ST8         1

