### 
### Created by X-TOOL on Sun Sep  9 21:50:04 2018
### 

@<TRIPOS>MOLECULE
1ogx_ligand
   38    41     1     0     0
SMALL
GAST_HUCK


@<TRIPOS>ATOM
      1 C1         13.0500  -41.7260  -15.9310 C.ar      1 NON         0.0847
      2 C2         13.1500  -42.7880  -16.7980 C.ar      1 NON        -0.0349
      3 C3         13.2880  -44.0860  -16.2630 C.ar      1 NON        -0.0392
      4 C4         13.3290  -44.3010  -14.8030 C.ar      1 NON        -0.0264
      5 C5         13.2330  -43.1840  -13.9590 C.ar      1 NON        -0.0607
      6 C6         13.0960  -41.9190  -14.5060 C.ar      1 NON        -0.0316
      7 C10        13.3780  -45.1850  -17.1970 C.ar      1 NON        -0.0716
      8 C11        13.5000  -46.5080  -16.6790 C.ar      1 NON        -0.0697
      9 C12        13.5350  -46.7280  -15.2560 C.ar      1 NON        -0.0421
     10 C13        13.4560  -45.6370  -14.3100 C.ar      1 NON        -0.0366
     11 C16        13.6440  -48.1280  -14.7670 C.3       1 NON        -0.0001
     12 C17        13.0080  -48.3130  -13.3610 C.3       1 NON         0.0440
     13 C18        13.6260  -47.3300  -12.3510 C.3       1 NON        -0.0320
     14 C19        13.4910  -45.8560  -12.8140 C.3       1 NON        -0.0221
     15 C24        12.9060  -49.2430  -15.5570 C.3       1 NON        -0.0275
     16 C25        13.2730  -50.4740  -14.6690 C.3       1 NON         0.0246
     17 C26        13.3170  -49.7990  -13.2450 C.2       1 NON         0.1347
     18 C27        11.4770  -48.1500  -13.3650 C.3       1 NON        -0.0528
     19 O1         12.9080  -40.5500  -16.4790 O.3       1 NON        -0.3342
     20 O26        13.5680  -50.3610  -12.2070 O.2       1 NON        -0.3320
     21 H1         13.1234  -42.6314  -17.8703 H         1 NON         0.0478
     22 H2         13.2659  -43.3108  -12.8829 H         1 NON         0.0603
     23 H3         13.0222  -41.0597  -13.8493 H         1 NON         0.0566
     24 H4         13.3534  -45.0079  -18.2662 H         1 NON         0.0507
     25 H5         13.5666  -47.3504  -17.3580 H         1 NON         0.0551
     26 H6         14.7171  -48.3671  -14.7321 H         1 NON         0.0425
     27 H7         14.6933  -47.5680  -12.2320 H         1 NON         0.0278
     28 H8         13.1143  -47.4463  -11.3842 H         1 NON         0.0278
     29 H9         12.5582  -45.4538  -12.3920 H         1 NON         0.0415
     30 H10        14.3474  -45.2958  -12.4107 H         1 NON         0.0415
     31 H11        13.2939  -49.3457  -16.5812 H         1 NON         0.0309
     32 H12        11.8201  -49.0713  -15.5917 H         1 NON         0.0309
     33 H13        14.2488  -50.8988  -14.9472 H         1 NON         0.0488
     34 H14        12.5030  -51.2577  -14.7231 H         1 NON         0.0488
     35 H15        11.0354  -48.8527  -14.0870 H         1 NON         0.0221
     36 H16        11.2187  -47.1198  -13.6511 H         1 NON         0.0221
     37 H17        11.0831  -48.3612  -12.3599 H         1 NON         0.0221
     38 H18        12.0884  -40.1649  -16.1918 H         1 NON         0.2479
@<TRIPOS>BOND
     1    1    2 ar 
     2    1    6 ar 
     3    1   19 1  
     4    2    3 ar 
     5    3    4 ar 
     6    3    7 ar 
     7    4    5 ar 
     8    4   10 ar 
     9    5    6 ar 
    10    7    8 ar 
    11    8    9 ar 
    12    9   10 ar 
    13    9   11 1  
    14   10   14 1  
    15   11   12 1  
    16   11   15 1  
    17   12   13 1  
    18   12   17 1  
    19   12   18 1  
    20   13   14 1  
    21   15   16 1  
    22   16   17 1  
    23   17   20 2  
    24    2   21 1  
    25    5   22 1  
    26    6   23 1  
    27    7   24 1  
    28    8   25 1  
    29   11   26 1  
    30   13   27 1  
    31   13   28 1  
    32   14   29 1  
    33   14   30 1  
    34   15   31 1  
    35   15   32 1  
    36   16   33 1  
    37   16   34 1  
    38   18   35 1  
    39   18   36 1  
    40   18   37 1  
    41   19   38 1  
@<TRIPOS>SUBSTRUCTURE
     1 NON         1

