### 
### Created by X-TOOL on Mon Sep 10 21:12:50 2018
### 

@<TRIPOS>MOLECULE
1ogz_ligand
   38    41     1     0     0
SMALL
GAST_HUCK


@<TRIPOS>ATOM
      1 C1         20.2120   76.6230   11.8630 C.ar      1 EQU         0.0847
      2 C2         18.8620   76.1710   12.0560 C.ar      1 EQU        -0.0349
      3 C3         17.9430   76.2500   10.9860 C.ar      1 EQU        -0.0392
      4 C4         18.4260   76.8190    9.6500 C.ar      1 EQU        -0.0264
      5 C5         19.8110   77.2540    9.5320 C.ar      1 EQU        -0.0607
      6 C6         20.6770   77.1480   10.6390 C.ar      1 EQU        -0.0316
      7 C10        16.5700   75.8060   11.1430 C.ar      1 EQU        -0.0716
      8 C11        15.6460   75.9010   10.0470 C.ar      1 EQU        -0.0697
      9 C12        16.0660   76.4330    8.7770 C.ar      1 EQU        -0.0421
     10 C13        17.4910   76.8980    8.5790 C.ar      1 EQU        -0.0366
     11 C16        15.0750   76.5780    7.5420 C.3       1 EQU        -0.0001
     12 C17        15.7160   76.5110    6.0460 C.3       1 EQU         0.0440
     13 C18        16.9140   77.5460    5.9950 C.3       1 EQU        -0.0320
     14 C19        17.8790   77.4590    7.1650 C.3       1 EQU        -0.0221
     15 C24        13.9170   75.5640    7.3360 C.3       1 EQU        -0.0275
     16 C25        13.2700   76.1550    6.0330 C.3       1 EQU         0.0246
     17 C26        14.4620   76.7360    5.2440 C.2       1 EQU         0.1347
     18 C27        16.3350   75.1000    5.5850 C.3       1 EQU        -0.0528
     19 O1         21.0620   76.5490   12.8640 O.3       1 EQU        -0.3342
     20 O26        14.4110   77.3060    4.1340 O.2       1 EQU        -0.3320
     21 H1         18.5511   75.7725   13.0150 H         1 EQU         0.0478
     22 H2         20.1751   77.6585    8.5945 H         1 EQU         0.0603
     23 H3         21.7075   77.4722   10.5492 H         1 EQU         0.0566
     24 H4         16.2400   75.4005   12.0926 H         1 EQU         0.0507
     25 H5         14.6225   75.5688   10.1777 H         1 EQU         0.0551
     26 H6         14.6248   77.5724    7.6781 H         1 EQU         0.0425
     27 H7         16.4895   78.5606    5.9759 H         1 EQU         0.0278
     28 H8         17.4811   77.3682    5.0694 H         1 EQU         0.0278
     29 H9         18.7163   76.8368    6.8161 H         1 EQU         0.0415
     30 H10        18.2325   78.4862    7.3377 H         1 EQU         0.0415
     31 H11        13.2129   75.5704    8.1811 H         1 EQU         0.0309
     32 H12        14.2918   74.5419    7.1788 H         1 EQU         0.0309
     33 H13        12.5455   76.9445    6.2814 H         1 EQU         0.0488
     34 H14        12.7680   75.3654    5.4547 H         1 EQU         0.0488
     35 H15        15.5475   74.3321    5.5990 H         1 EQU         0.0221
     36 H16        17.1416   74.8106    6.2746 H         1 EQU         0.0221
     37 H17        16.7391   75.1922    4.5661 H         1 EQU         0.0221
     38 H18        21.9070   76.8822   12.5857 H         1 EQU         0.2479
@<TRIPOS>BOND
     1    1    6 ar 
     2    1    2 ar 
     3    1   19 1  
     4    2    3 ar 
     5    3    4 ar 
     6    3    7 ar 
     7    4    5 ar 
     8    4   10 ar 
     9    5    6 ar 
    10    7    8 ar 
    11    8    9 ar 
    12    9   10 ar 
    13    9   11 1  
    14   10   14 1  
    15   11   12 1  
    16   11   15 1  
    17   12   13 1  
    18   12   17 1  
    19   12   18 1  
    20   13   14 1  
    21   15   16 1  
    22   16   17 1  
    23   17   20 2  
    24    2   21 1  
    25    5   22 1  
    26    6   23 1  
    27    7   24 1  
    28    8   25 1  
    29   11   26 1  
    30   13   27 1  
    31   13   28 1  
    32   14   29 1  
    33   14   30 1  
    34   15   31 1  
    35   15   32 1  
    36   16   33 1  
    37   16   34 1  
    38   18   35 1  
    39   18   36 1  
    40   18   37 1  
    41   19   38 1  
@<TRIPOS>SUBSTRUCTURE
     1 EQU         1

