### 
### Created by X-TOOL on Mon Sep 10 21:12:46 2018
### 

@<TRIPOS>MOLECULE
1ohr_ligand
   86    89     1     0     0
SMALL
GAST_HUCK


@<TRIPOS>ATOM
      1 C1          2.6450   -4.1530   16.3150 C.3       1 1UN         0.0024
      2 C2          3.4610   -5.4530   16.5930 C.3       1 1UN        -0.0261
      3 C3          2.6850   -6.6860   16.1660 C.3       1 1UN        -0.0494
      4 C4          2.2720   -6.5480   14.7110 C.3       1 1UN        -0.0528
      5 C5          1.4340   -5.2770   14.5060 C.3       1 1UN        -0.0526
      6 C6          2.2930   -4.0120   14.8260 C.3       1 1UN        -0.0451
      7 N7          4.7380   -2.8460   16.0410 N.4       1 1UN         0.2562
      8 C8          5.5780   -4.0310   16.3220 C.3       1 1UN         0.0688
      9 C9          4.8280   -5.3230   15.8890 C.3       1 1UN         0.0113
     10 C10         3.4830   -2.9590   16.8210 C.3       1 1UN        -0.0266
     11 C11         6.8480   -3.9550   15.5210 C.2       1 1UN         0.2251
     12 N12         7.8860   -4.4650   16.2330 N.am      1 1UN        -0.2771
     13 C13         9.2890   -4.5340   15.7600 C.3       1 1UN         0.0448
     14 C14         9.8340   -3.1580   15.4200 C.3       1 1UN        -0.0396
     15 C15         9.3340   -5.4090   14.4700 C.3       1 1UN        -0.0396
     16 C16        10.1210   -5.1180   16.9370 C.3       1 1UN        -0.0396
     17 O17         6.8300   -3.5380   14.3450 O.2       1 1UN        -0.3909
     18 C18         5.3380   -1.5960   16.5180 C.3       1 1UN        -0.0009
     19 C19         4.8200   -0.4460   15.6410 C.3       1 1UN         0.1184
     20 C20         5.5120   -0.3020   14.2830 C.3       1 1UN         0.0832
     21 O21         5.0320    0.7290   16.4330 O.3       1 1UN        -0.3842
     22 N22         4.7580    0.7430   13.6060 N.am      1 1UN        -0.2808
     23 C23         6.9320    0.1830   14.3100 C.3       1 1UN         0.0326
     24 C24         3.8790    0.3930   12.6450 C.2       1 1UN         0.1978
     25 O25         3.7100   -0.7870   12.3060 O.2       1 1UN        -0.3887
     26 C29         3.1980    1.4880   11.9920 C.ar      1 1UN         0.0427
     27 C30         3.9390    2.5960   11.5220 C.ar      1 1UN        -0.0597
     28 C31         3.3240    3.6870   10.9180 C.ar      1 1UN        -0.0720
     29 C32         1.9510    3.6590   10.7530 C.ar      1 1UN        -0.0355
     30 C33         1.2060    2.5700   11.2290 C.ar      1 1UN         0.0948
     31 C34         1.8060    1.4600   11.8290 C.ar      1 1UN         0.0036
     32 O38        -0.1640    2.6190   11.2010 O.3       1 1UN        -0.3358
     33 C39         0.9350    0.3430   12.3340 C.3       1 1UN        -0.0293
     34 S74         7.7470   -0.2420   12.7580 S.3       1 1UN        -0.0993
     35 C77         7.7040    1.2030   11.8200 C.ar      1 1UN         0.0154
     36 C78         7.9680    1.0620   10.4640 C.ar      1 1UN        -0.0498
     37 C79         7.9720    2.2040    9.6860 C.ar      1 1UN        -0.0678
     38 C80         7.7140    3.4510   10.2640 C.ar      1 1UN        -0.0687
     39 C81         7.4430    3.5800   11.6300 C.ar      1 1UN        -0.0678
     40 C82         7.4360    2.4280   12.4120 C.ar      1 1UN        -0.0498
     41 H1          1.7051   -4.1943   16.8849 H         1 1UN         0.0355
     42 H2          3.6389   -5.5304   17.6757 H         1 1UN         0.0309
     43 H3          1.7873   -6.7893   16.7933 H         1 1UN         0.0268
     44 H4          3.3192   -7.5770   16.2838 H         1 1UN         0.0268
     45 H5          1.6757   -7.4252   14.4195 H         1 1UN         0.0265
     46 H6          3.1733   -6.4921   14.0829 H         1 1UN         0.0265
     47 H7          0.5619   -5.3039   15.1759 H         1 1UN         0.0265
     48 H8          1.0926   -5.2305   13.4614 H         1 1UN         0.0265
     49 H9          3.2047   -3.9953   14.2108 H         1 1UN         0.0270
     50 H10         1.7140   -3.0937   14.6485 H         1 1UN         0.0270
     51 H11         4.5514   -2.7921   15.0519 H         1 1UN         0.2057
     52 H12         5.8111   -4.0720   17.3962 H         1 1UN         0.1100
     53 H13         4.6674   -5.2942   14.8012 H         1 1UN         0.0348
     54 H14         5.4455   -6.1964   16.1455 H         1 1UN         0.0348
     55 H15         3.7277   -3.1110   17.8826 H         1 1UN         0.0818
     56 H16         2.9006   -2.0327   16.7080 H         1 1UN         0.0818
     57 H17         7.6886   -4.8212   17.1463 H         1 1UN         0.1859
     58 H18        10.8740   -3.2508   15.0740 H         1 1UN         0.0254
     59 H19         9.8009   -2.5191   16.3148 H         1 1UN         0.0254
     60 H20         9.2219   -2.7074   14.6248 H         1 1UN         0.0254
     61 H21        10.3698   -5.4708   14.1049 H         1 1UN         0.0254
     62 H22         8.6989   -4.9538   13.6958 H         1 1UN         0.0254
     63 H23         8.9652   -6.4196   14.6993 H         1 1UN         0.0254
     64 H24        11.1772   -5.1914   16.6384 H         1 1UN         0.0254
     65 H25         9.7420   -6.1184   17.1930 H         1 1UN         0.0254
     66 H26        10.0324   -4.4573   17.8120 H         1 1UN         0.0254
     67 H27         6.4337   -1.6568   16.4423 H         1 1UN         0.0841
     68 H28         5.0519   -1.4224   17.5659 H         1 1UN         0.0841
     69 H29         3.7446   -0.5894   15.4593 H         1 1UN         0.0670
     70 H30         5.4634   -1.2580   13.7410 H         1 1UN         0.0593
     71 H31         4.5451    0.6541   17.2453 H         1 1UN         0.2101
     72 H32         4.8896    1.7040   13.8493 H         1 1UN         0.1847
     73 H33         7.4655   -0.2931   15.1458 H         1 1UN         0.0425
     74 H34         6.9433    1.2750   14.4422 H         1 1UN         0.0425
     75 H35         5.0170    2.5952   11.6356 H         1 1UN         0.0556
     76 H36         3.9062    4.5385   10.5847 H         1 1UN         0.0543
     77 H37         1.4495    4.4807   10.2546 H         1 1UN         0.0556
     78 H38        -0.4576    2.7273   10.3040 H         1 1UN         0.2456
     79 H39         1.5658   -0.4439   12.7731 H         1 1UN         0.0382
     80 H40         0.3547   -0.0758   11.4987 H         1 1UN         0.0382
     81 H41         0.2475    0.7316   13.0997 H         1 1UN         0.0382
     82 H42         8.1645    0.0882   10.0301 H         1 1UN         0.0565
     83 H43         8.1759    2.1330    8.6237 H         1 1UN         0.0600
     84 H44         7.7243    4.3370    9.6396 H         1 1UN         0.0559
     85 H45         7.2437    4.5512   12.0683 H         1 1UN         0.0600
     86 H46         7.2231    2.4881   13.4732 H         1 1UN         0.0565
@<TRIPOS>BOND
     1    1   10 1  
     2    1    6 1  
     3    1    2 1  
     4    2    9 1  
     5    2    3 1  
     6    3    4 1  
     7    4    5 1  
     8    5    6 1  
     9    9    8 1  
    10    8   11 1  
    11    8    7 1  
    12    7   18 1  
    13    7   10 1  
    14   18   19 1  
    15   19   21 1  
    16   19   20 1  
    17   20   23 1  
    18   20   22 1  
    19   22   24 am 
    20   24   26 1  
    21   24   25 2  
    22   26   31 ar 
    23   26   27 ar 
    24   27   28 ar 
    25   28   29 ar 
    26   29   30 ar 
    27   30   32 1  
    28   30   31 ar 
    29   31   33 1  
    30   23   34 1  
    31   34   35 1  
    32   35   40 ar 
    33   35   36 ar 
    34   36   37 ar 
    35   37   38 ar 
    36   38   39 ar 
    37   39   40 ar 
    38   11   17 2  
    39   11   12 am 
    40   12   13 1  
    41   13   16 1  
    42   13   15 1  
    43   13   14 1  
    44    1   41 1  
    45    2   42 1  
    46    3   43 1  
    47    3   44 1  
    48    4   45 1  
    49    4   46 1  
    50    5   47 1  
    51    5   48 1  
    52    6   49 1  
    53    6   50 1  
    54    7   51 1  
    55    8   52 1  
    56    9   53 1  
    57    9   54 1  
    58   10   55 1  
    59   10   56 1  
    60   12   57 1  
    61   14   58 1  
    62   14   59 1  
    63   14   60 1  
    64   15   61 1  
    65   15   62 1  
    66   15   63 1  
    67   16   64 1  
    68   16   65 1  
    69   16   66 1  
    70   18   67 1  
    71   18   68 1  
    72   19   69 1  
    73   20   70 1  
    74   21   71 1  
    75   22   72 1  
    76   23   73 1  
    77   23   74 1  
    78   27   75 1  
    79   28   76 1  
    80   29   77 1  
    81   32   78 1  
    82   33   79 1  
    83   33   80 1  
    84   33   81 1  
    85   36   82 1  
    86   37   83 1  
    87   38   84 1  
    88   39   85 1  
    89   40   86 1  
@<TRIPOS>SUBSTRUCTURE
     1 1UN         1

