### 
### Created by X-TOOL on Mon Sep 10 21:12:52 2018
### 

@<TRIPOS>MOLECULE
1oi9_ligand
   46    49     1     0     0
SMALL
GAST_HUCK


@<TRIPOS>ATOM
      1 C2          7.9430   43.7940   49.8040 C.ar      1 N20         0.1769
      2 O23         2.8750   40.0740   48.9520 O.3       1 N20        -0.3404
      3 C8         10.6830   46.4870   52.0230 C.2       1 N20         0.1032
      4 C10         4.9330   45.9430   51.6860 C.3       1 N20         0.0801
      5 C11         4.0360   46.1890   52.8930 C.3       1 N20        -0.0121
      6 C12         2.6070   45.7530   52.5480 C.3       1 N20        -0.0477
      7 C13         1.6340   45.8910   53.7310 C.3       1 N20        -0.0527
      8 C14         2.1950   45.3580   55.0540 C.3       1 N20        -0.0530
      9 C15         3.6340   45.8150   55.3170 C.3       1 N20        -0.0527
     10 C16         4.5400   45.4600   54.1420 C.3       1 N20        -0.0477
     11 C19         4.4640   41.3480   50.0690 C.ar      1 N20        -0.0423
     12 C20         4.0280   40.7240   48.9090 C.ar      1 N20         0.0761
     13 C21         4.7660   40.8070   47.7340 C.ar      1 N20        -0.0423
     14 C22         5.9740   41.5130   47.7500 C.ar      1 N20        -0.0464
     15 N1          6.9900   44.4610   50.5040 N.ar      1 N20        -0.2406
     16 C6          7.2750   45.4390   51.3880 C.ar      1 N20         0.1755
     17 O6          6.2950   46.1090   52.0700 O.3       1 N20        -0.2929
     18 C5          8.6840   45.7920   51.5760 C.ar      1 N20         0.1041
     19 N7          9.3440   46.7070   52.3490 N.2       1 N20        -0.3020
     20 N9         10.9380   45.4970   51.0720 N.pl3     1 N20        -0.2403
     21 C4          9.6430   45.0600   50.8010 C.ar      1 N20         0.1445
     22 N3          9.2660   44.0820   49.9480 N.ar      1 N20        -0.2574
     23 N2          7.5750   42.8240   48.9260 N.pl3     1 N20        -0.2553
     24 C17         6.4030   42.1440   48.9250 C.ar      1 N20         0.0537
     25 C18         5.6420   42.0570   50.0830 C.ar      1 N20        -0.0464
     26 H1          2.1804   40.6786   49.1853 H         1 N20         0.2444
     27 H2         11.4868   47.0575   52.4860 H         1 N20         0.1317
     28 H3          4.6851   46.6620   50.8913 H         1 N20         0.0630
     29 H4          4.7779   44.9190   51.3155 H         1 N20         0.0630
     30 H5          4.0319   47.2678   53.1076 H         1 N20         0.0328
     31 H6          2.6285   44.6993   52.2331 H         1 N20         0.0269
     32 H7          2.2410   46.3762   51.7188 H         1 N20         0.0269
     33 H8          0.7162   45.3333   53.4930 H         1 N20         0.0265
     34 H9          1.3927   46.9564   53.8600 H         1 N20         0.0265
     35 H10         2.1751   44.2585   55.0265 H         1 N20         0.0265
     36 H11         1.5571   45.7158   55.8756 H         1 N20         0.0265
     37 H12         4.0095   45.3191   56.2242 H         1 N20         0.0265
     38 H13         3.6448   46.9051   55.4638 H         1 N20         0.0265
     39 H14         5.5711   45.7734   54.3623 H         1 N20         0.0269
     40 H15         4.5155   44.3736   53.9713 H         1 N20         0.0269
     41 H16         3.8702   41.2759   50.9730 H         1 N20         0.0515
     42 H17         4.4131   40.3347   46.8244 H         1 N20         0.0515
     43 H18         6.5786   41.5718   46.8522 H         1 N20         0.0511
     44 H19        11.8352   45.1780   50.6794 H         1 N20         0.2379
     45 H20         8.2532   42.5822   48.1895 H         1 N20         0.2134
     46 H21         5.9744   42.5448   50.9922 H         1 N20         0.0511
@<TRIPOS>BOND
     1    1   15 ar 
     2    1   22 ar 
     3   23    1 1  
     4   12    2 1  
     5    3   19 2  
     6   20    3 1  
     7    4    5 1  
     8   17    4 1  
     9    5    6 1  
    10    5   10 1  
    11    6    7 1  
    12    7    8 1  
    13    9    8 1  
    14   10    9 1  
    15   12   11 ar 
    16   11   25 ar 
    17   13   12 ar 
    18   14   13 ar 
    19   24   14 ar 
    20   15   16 ar 
    21   16   17 1  
    22   16   18 ar 
    23   18   19 1  
    24   21   18 ar 
    25   21   20 1  
    26   22   21 ar 
    27   23   24 1  
    28   24   25 ar 
    29    2   26 1  
    30    3   27 1  
    31    4   28 1  
    32    4   29 1  
    33    5   30 1  
    34    6   31 1  
    35    6   32 1  
    36    7   33 1  
    37    7   34 1  
    38    8   35 1  
    39    8   36 1  
    40    9   37 1  
    41    9   38 1  
    42   10   39 1  
    43   10   40 1  
    44   11   41 1  
    45   13   42 1  
    46   14   43 1  
    47   20   44 1  
    48   23   45 1  
    49   25   46 1  
@<TRIPOS>SUBSTRUCTURE
     1 N20         1

