### 
### Created by X-TOOL on Mon Sep 10 21:12:50 2018
### 

@<TRIPOS>MOLECULE
1oif_ligand
   24    24     1     0     0
SMALL
GAST_HUCK


@<TRIPOS>ATOM
      1 O4         -1.2450   10.9210    6.4200 O.3       1 IFM        -0.3885
      2 C4         -0.8590   10.6970    7.7800 C.3       1 IFM         0.0958
      3 C3          0.0200   11.9210    8.2090 C.3       1 IFM         0.1209
      4 O3          1.1280   12.2160    7.3640 O.3       1 IFM        -0.3839
      5 C2          0.4770   11.8650    9.6770 C.3       1 IFM        -0.0045
      6 N          -0.6170   11.5090   10.6020 N.4       1 IFM         0.2292
      7 C1         -1.4470   10.3550   10.1920 C.3       1 IFM        -0.0261
      8 C5         -2.0480   10.5600    8.7840 C.3       1 IFM         0.0507
      9 C6         -2.9910    9.3730    8.4930 C.3       1 IFM         0.0543
     10 O6         -2.2870    8.1680    8.8340 O.3       1 IFM        -0.3945
     11 H1         -1.7822   10.1968    6.1211 H         1 IFM         0.2099
     12 H2         -0.2617    9.7745    7.8269 H         1 IFM         0.0626
     13 H3         -0.6494   12.7905    8.1324 H         1 IFM         0.0673
     14 H4          0.8145   12.4080    6.4880 H         1 IFM         0.2101
     15 H5          0.8703   12.8523    9.9609 H         1 IFM         0.0840
     16 H6          1.2741   11.1125    9.7688 H         1 IFM         0.0840
     17 H7         -1.2217   12.3105   10.6910 H         1 IFM         0.2014
     18 H8         -0.2086   11.2950   11.4984 H         1 IFM         0.2014
     19 H9         -2.2663   10.2294   10.9152 H         1 IFM         0.0818
     20 H10        -0.8219    9.4499   10.1852 H         1 IFM         0.0818
     21 H11        -2.6369   11.4887    8.7597 H         1 IFM         0.0401
     22 H12        -3.2615    9.3609    7.4268 H         1 IFM         0.0562
     23 H13        -3.9031    9.4600    9.1017 H         1 IFM         0.0562
     24 H14        -1.4989    8.1032    8.3074 H         1 IFM         0.2094
@<TRIPOS>BOND
     1    1    2 1  
     2    2    3 1  
     3    2    8 1  
     4    3    4 1  
     5    3    5 1  
     6    5    6 1  
     7    6    7 1  
     8    7    8 1  
     9    8    9 1  
    10    9   10 1  
    11    1   11 1  
    12    2   12 1  
    13    3   13 1  
    14    4   14 1  
    15    5   15 1  
    16    5   16 1  
    17    6   17 1  
    18    6   18 1  
    19    7   19 1  
    20    7   20 1  
    21    8   21 1  
    22    9   22 1  
    23    9   23 1  
    24   10   24 1  
@<TRIPOS>SUBSTRUCTURE
     1 IFM         1

