### 
### Created by X-TOOL on Mon Sep 10 21:12:50 2018
### 

@<TRIPOS>MOLECULE
1oim_ligand
   25    25     1     0     0
SMALL
GAST_HUCK


@<TRIPOS>ATOM
      1 C1         -0.3660   10.9440   10.7940 C.3       1 NOJ        -0.0040
      2 C2          0.5220   11.6790    9.7710 C.3       1 NOJ         0.1231
      3 O2          0.9600   12.8910   10.3390 O.3       1 NOJ        -0.3838
      4 C3         -0.1110   11.9170    8.3970 C.3       1 NOJ         0.1171
      5 O3          1.0000   12.1960    7.5150 O.3       1 NOJ        -0.3862
      6 C4         -0.9790   10.6840    8.0220 C.3       1 NOJ         0.1280
      7 O4         -1.3350   10.7820    6.6500 O.3       1 NOJ        -0.3835
      8 C5         -2.1680   10.6310    9.0120 C.3       1 NOJ         0.0301
      9 N5         -1.7200   10.5370   10.4240 N.4       1 NOJ         0.2346
     10 C6         -3.1220    9.4430    8.8140 C.3       1 NOJ         0.0893
     11 O6         -2.4070    8.2240    8.9100 O.3       1 NOJ        -0.3894
     12 H1         -0.4605   11.6065   11.6670 H         1 NOJ         0.0840
     13 H2          0.1727   10.0298   11.0840 H         1 NOJ         0.0840
     14 H3          1.4062   11.0468    9.6023 H         1 NOJ         0.0674
     15 H4          0.2070   13.4276   10.5570 H         1 NOJ         0.2101
     16 H5         -0.7678   12.7988    8.4290 H         1 NOJ         0.0649
     17 H6          0.6738   12.3546    6.6370 H         1 NOJ         0.2100
     18 H7         -0.3863    9.7665    8.1520 H         1 NOJ         0.0678
     19 H8         -1.8667   10.0330    6.4077 H         1 NOJ         0.2102
     20 H9         -2.7396   11.5614    8.8796 H         1 NOJ         0.0900
     21 H10        -2.3521   11.1039   10.9673 H         1 NOJ         0.2019
     22 H11        -1.8171    9.5711   10.6955 H         1 NOJ         0.2019
     23 H12        -3.5896    9.5133    7.8208 H         1 NOJ         0.0614
     24 H13        -3.9019    9.4694    9.5892 H         1 NOJ         0.0614
     25 H14        -1.7340    8.1993    8.2400 H         1 NOJ         0.2097
@<TRIPOS>BOND
     1    1    2 1  
     2    1    9 1  
     3    2    3 1  
     4    2    4 1  
     5    4    5 1  
     6    4    6 1  
     7    6    7 1  
     8    6    8 1  
     9    8    9 1  
    10    8   10 1  
    11   10   11 1  
    12    1   12 1  
    13    1   13 1  
    14    2   14 1  
    15    3   15 1  
    16    4   16 1  
    17    5   17 1  
    18    6   18 1  
    19    7   19 1  
    20    8   20 1  
    21    9   21 1  
    22    9   22 1  
    23   10   23 1  
    24   10   24 1  
    25   11   25 1  
@<TRIPOS>SUBSTRUCTURE
     1 NOJ         1

