### 
### Created by X-TOOL on Mon Sep 10 21:12:50 2018
### 

@<TRIPOS>MOLECULE
1oiq_ligand
   34    36     1     0     0
SMALL
GAST_HUCK


@<TRIPOS>ATOM
      1 O20        10.9720   -9.7210   10.7170 O.2       1 HDU        -0.3793
      2 C18        10.3520  -10.5520   11.3910 C.2       1 HDU         0.2126
      3 C19         9.1160  -11.1830   10.8190 C.3       1 HDU         0.0340
      4 N17        10.7340  -10.9250   12.6190 N.am      1 HDU        -0.1929
      5 C15        11.9030  -10.3940   13.2890 C.ar      1 HDU         0.2385
      6 N16        12.8410   -9.5420   12.6240 N.ar      1 HDU        -0.2349
      7 N14        12.1840  -10.6980   14.6630 N.ar      1 HDU        -0.2222
      8 C13        13.2600  -10.1780   15.2460 C.ar      1 HDU         0.0435
      9 C12        14.0960   -9.3960   14.5860 C.ar      1 HDU         0.0139
     10 C11        13.9020   -9.0800   13.2850 C.ar      1 HDU         0.1112
     11 C7         14.8400   -8.1500   12.5670 C.2       1 HDU         0.1675
     12 N6         14.5850   -7.5080   11.2960 N.ar      1 HDU        -0.2707
     13 C5         15.6850   -6.6890   11.0130 C.ar      1 HDU         0.1757
     14 N8         16.6130   -6.7830   12.0620 N.pl3     1 HDU        -0.1893
     15 C9         16.1650   -7.6280   13.0200 C.2       1 HDU         0.1819
     16 C10        16.9440   -7.9520   14.2620 C.3       1 HDU         0.0457
     17 C4         15.7110   -5.9470    9.8340 C.ar      1 HDU         0.0078
     18 C3         14.6450   -6.0130    8.9250 C.ar      1 HDU        -0.0402
     19 C2         13.5530   -6.8240    9.2270 C.ar      1 HDU        -0.0356
     20 C1         13.5550   -7.5600   10.4250 C.ar      1 HDU         0.0062
     21 H1          8.6955  -11.8919   11.5475 H         1 HDU         0.0475
     22 H2          9.3725  -11.7181    9.8928 H         1 HDU         0.0475
     23 H3          8.3742  -10.4015   10.5976 H         1 HDU         0.0475
     24 H4         10.1824  -11.6069   13.0993 H         1 HDU         0.2415
     25 H5         13.4562  -10.4011   16.2885 H         1 HDU         0.0965
     26 H6         14.9617   -8.9964   15.1016 H         1 HDU         0.0911
     27 H7         17.5105   -6.2789   12.0978 H         1 HDU         0.2681
     28 H8         16.3709   -8.6585   14.8804 H         1 HDU         0.0628
     29 H9         17.1253   -7.0291   14.8324 H         1 HDU         0.0628
     30 H10        17.9064   -8.4059   13.9832 H         1 HDU         0.0628
     31 H11        16.5630   -5.3128    9.6173 H         1 HDU         0.0726
     32 H12        14.6702   -5.4429    8.0034 H         1 HDU         0.0733
     33 H13        12.7117   -6.8868    8.5463 H         1 HDU         0.0699
     34 H14        12.7029   -8.1888   10.6564 H         1 HDU         0.0825
@<TRIPOS>BOND
     1    1    2 2  
     2    2    3 1  
     3    2    4 am 
     4    4    5 1  
     5    5    6 ar 
     6    5    7 ar 
     7    6   10 ar 
     8    7    8 ar 
     9    8    9 ar 
    10    9   10 ar 
    11   10   11 1  
    12   11   12 1  
    13   11   15 2  
    14   12   13 ar 
    15   12   20 ar 
    16   13   14 1  
    17   13   17 ar 
    18   14   15 1  
    19   15   16 1  
    20   17   18 ar 
    21   18   19 ar 
    22   19   20 ar 
    23    3   21 1  
    24    3   22 1  
    25    3   23 1  
    26    4   24 1  
    27    8   25 1  
    28    9   26 1  
    29   14   27 1  
    30   16   28 1  
    31   16   29 1  
    32   16   30 1  
    33   17   31 1  
    34   18   32 1  
    35   19   33 1  
    36   20   34 1  
@<TRIPOS>SUBSTRUCTURE
     1 HDU         1

