### 
### Created by X-TOOL on Mon Sep 10 21:12:50 2018
### 

@<TRIPOS>MOLECULE
1oir_ligand
   59    62     1     0     0
SMALL
GAST_HUCK


@<TRIPOS>ATOM
      1 C10        -2.3020   29.8690    9.6880 C.3       1 HDY         0.0440
      2 C9         -1.7660   28.4940    9.4240 C.2       1 HDY         0.1772
      3 N8         -2.2330   27.3860   10.0040 N.pl3     1 HDY        -0.1917
      4 C5         -1.5020   26.3230    9.5490 C.ar      1 HDY         0.1734
      5 C4         -1.6700   24.9940    9.8810 C.ar      1 HDY         0.0069
      6 C3         -0.8280   24.0660    9.2700 C.ar      1 HDY        -0.0408
      7 C2          0.1480   24.4680    8.3420 C.ar      1 HDY        -0.0362
      8 N6         -0.5270   26.6900    8.6190 N.ar      1 HDY        -0.2739
      9 C1          0.2900   25.8200    8.0020 C.ar      1 HDY         0.0049
     10 C7         -0.6580   28.1220    8.4880 C.2       1 HDY         0.1630
     11 C11         0.1940   28.9810    7.6540 C.ar      1 HDY         0.1108
     12 C12        -0.1210   30.3060    7.3710 C.ar      1 HDY         0.0161
     13 C13         0.7860   31.0350    6.6090 C.ar      1 HDY         0.0473
     14 N14         1.9080   30.4360    6.1810 N.ar      1 HDY        -0.2192
     15 N16         1.3540   28.4310    7.2300 N.ar      1 HDY        -0.2345
     16 C15         2.2080   29.1390    6.4790 C.ar      1 HDY         0.2288
     17 N17         3.3630   28.5960    6.0170 N.pl3     1 HDY        -0.2396
     18 C18         3.8220   27.3140    6.0820 C.ar      1 HDY         0.0620
     19 C19         4.4700   26.8310    4.9480 C.ar      1 HDY        -0.0419
     20 C20         5.0030   25.5390    4.9040 C.ar      1 HDY        -0.0383
     21 C23         3.7210   26.4700    7.2010 C.ar      1 HDY        -0.0419
     22 C22         4.2600   25.1700    7.1520 C.ar      1 HDY        -0.0383
     23 C21         4.8910   24.6820    5.9990 C.ar      1 HDY         0.0839
     24 O24         5.4450   23.3970    5.9840 O.3       1 HDY        -0.3198
     25 C25         5.0750   22.2240    5.2280 C.3       1 HDY         0.0999
     26 C26         6.3010   21.3080    5.0100 C.3       1 HDY         0.1221
     27 O31         7.4670   21.9350    5.5460 O.3       1 HDY        -0.3838
     28 C27         6.1760   19.9110    5.6520 C.3       1 HDY        -0.0032
     29 N28         5.2590   18.9700    4.9860 N.4       1 HDY         0.2328
     30 C30         6.0290   17.9250    4.3220 C.3       1 HDY        -0.0433
     31 C29         4.4410   18.2640    5.9680 C.3       1 HDY        -0.0433
     32 H1         -1.7449   30.6016    9.0855 H         1 HDY         0.0623
     33 H2         -2.1869   30.1088   10.7554 H         1 HDY         0.0623
     34 H3         -3.3674   29.9056    9.4167 H         1 HDY         0.0623
     35 H4         -3.0102   27.3395   10.6783 H         1 HDY         0.2661
     36 H5         -2.4284   24.6833   10.5904 H         1 HDY         0.0721
     37 H6         -0.9279   23.0148    9.5152 H         1 HDY         0.0731
     38 H7          0.7952   23.7273    7.8863 H         1 HDY         0.0695
     39 H8          1.0244   26.1484    7.2754 H         1 HDY         0.0822
     40 H9         -1.0399   30.7541    7.7312 H         1 HDY         0.0936
     41 H10         0.5893   32.0725    6.3643 H         1 HDY         0.0975
     42 H11         3.9929   29.2579    5.5416 H         1 HDY         0.2207
     43 H12         4.5635   27.4718    4.0787 H         1 HDY         0.0531
     44 H13         5.5095   25.1991    4.0079 H         1 HDY         0.0528
     45 H14         3.2285   26.8194    8.1012 H         1 HDY         0.0531
     46 H15         4.1854   24.5322    8.0254 H         1 HDY         0.0528
     47 H16         4.6774   22.5345    4.2505 H         1 HDY         0.0640
     48 H17         4.3018   21.6681    5.7786 H         1 HDY         0.0640
     49 H18         6.4313   21.1746    3.9259 H         1 HDY         0.0674
     50 H19         7.3452   22.0852    6.4762 H         1 HDY         0.2101
     51 H20         5.8254   20.0466    6.6858 H         1 HDY         0.0841
     52 H21         7.1769   19.4548    5.6611 H         1 HDY         0.0841
     53 H22         4.6789   19.4657    4.3273 H         1 HDY         0.2029
     54 H23         5.3427   17.2234    3.8253 H         1 HDY         0.0777
     55 H24         6.6310   17.3837    5.0667 H         1 HDY         0.0777
     56 H25         6.6941   18.3794    3.5730 H         1 HDY         0.0777
     57 H26         3.8227   18.9882    6.5187 H         1 HDY         0.0777
     58 H27         5.0944   17.7290    6.6728 H         1 HDY         0.0777
     59 H28         3.7896   17.5431    5.4523 H         1 HDY         0.0777
@<TRIPOS>BOND
     1    1    2 1  
     2    2    3 1  
     3    2   10 2  
     4    3    4 1  
     5    4    5 ar 
     6    4    8 ar 
     7    5    6 ar 
     8    6    7 ar 
     9    7    9 ar 
    10    8    9 ar 
    11    8   10 1  
    12   10   11 1  
    13   11   12 ar 
    14   11   15 ar 
    15   12   13 ar 
    16   13   14 ar 
    17   14   16 ar 
    18   15   16 ar 
    19   16   17 1  
    20   17   18 1  
    21   18   19 ar 
    22   18   21 ar 
    23   19   20 ar 
    24   20   23 ar 
    25   21   22 ar 
    26   22   23 ar 
    27   23   24 1  
    28   24   25 1  
    29   25   26 1  
    30   26   27 1  
    31   26   28 1  
    32   28   29 1  
    33   29   30 1  
    34   29   31 1  
    35    1   32 1  
    36    1   33 1  
    37    1   34 1  
    38    3   35 1  
    39    5   36 1  
    40    6   37 1  
    41    7   38 1  
    42    9   39 1  
    43   12   40 1  
    44   13   41 1  
    45   17   42 1  
    46   19   43 1  
    47   20   44 1  
    48   21   45 1  
    49   22   46 1  
    50   25   47 1  
    51   25   48 1  
    52   26   49 1  
    53   27   50 1  
    54   28   51 1  
    55   28   52 1  
    56   29   53 1  
    57   30   54 1  
    58   30   55 1  
    59   30   56 1  
    60   31   57 1  
    61   31   58 1  
    62   31   59 1  
@<TRIPOS>SUBSTRUCTURE
     1 HDY         1

