### 
### Created by X-TOOL on Mon Sep 10 21:12:50 2018
### 

@<TRIPOS>MOLECULE
1oit_ligand
   41    44     1     0     0
SMALL
GAST_HUCK


@<TRIPOS>ATOM
      1 C22         8.7010  -11.7790   10.8180 C.ar      1 HDT        -0.0340
      2 N1         14.2760   -8.0000   10.5420 N.ar      1 HDT        -0.2652
      3 C2         13.6440   -8.7730    9.6490 C.ar      1 HDT         0.0112
      4 C6         15.0850   -7.0060   10.2360 C.ar      1 HDT         0.1859
      5 C5         15.3610   -6.6730    8.9220 C.ar      1 HDT         0.0142
      6 C4         14.7240   -7.4570    7.9590 C.ar      1 HDT        -0.0355
      7 C3         13.8620   -8.5060    8.3010 C.ar      1 HDT        -0.0311
      8 C11        13.8370   -9.4040   13.9460 C.ar      1 HDT         0.0187
      9 C10        13.4260   -9.0330   12.6760 C.ar      1 HDT         0.1176
     10 C9         14.2300   -8.0450   11.8910 C.2       1 HDT         0.1640
     11 C8         15.0280   -7.0750   12.3850 C.2       1 HDT         0.1627
     12 C12        13.0600  -10.3220   14.6380 C.ar      1 HDT         0.0487
     13 C17         9.7240  -10.8810   11.1420 C.ar      1 HDT         0.0703
     14 C14        11.5570  -10.4680   12.8310 C.ar      1 HDT         0.2336
     15 N15        12.3030   -9.5790   12.1380 N.ar      1 HDT        -0.2281
     16 C18         9.8970   -9.7540   10.3420 C.ar      1 HDT        -0.0340
     17 C19         9.1070   -9.5620    9.2060 C.ar      1 HDT        -0.0431
     18 C20         8.1190  -10.4800    8.8680 C.ar      1 HDT         0.0979
     19 O26         6.0810   -9.4490    7.9890 O.2       1 HDT        -0.1518
     20 S23         7.1980  -10.2430    7.5750 S.o2      1 HDT         0.0615
     21 O25         6.7240  -11.4980    7.0520 O.2       1 HDT        -0.1518
     22 N24         8.0040   -9.4540    6.4390 N.am      1 HDT        -0.2620
     23 C21         7.9130  -11.5920    9.6840 C.ar      1 HDT        -0.0431
     24 N16        10.4440  -11.0810   12.3350 N.pl3     1 HDT        -0.2343
     25 N13        11.9590  -10.8300   14.0680 N.ar      1 HDT        -0.2172
     26 N7         15.5600   -6.4310   11.4210 N.pl3     1 HDT        -0.1915
     27 H1          8.5186  -12.6337   11.4593 H         1 HDT         0.0549
     28 H2         12.9877   -9.5760    9.9646 H         1 HDT         0.0844
     29 H3         16.0264   -5.8589    8.6584 H         1 HDT         0.0763
     30 H4         14.9027   -7.2467    6.9107 H         1 HDT         0.0745
     31 H5         13.3756   -9.0966    7.5331 H         1 HDT         0.0735
     32 H6         14.7374   -8.9901   14.3853 H         1 HDT         0.0944
     33 H7         15.1922   -6.8734   13.4425 H         1 HDT         0.1768
     34 H8         13.3434  -10.6278   15.6386 H         1 HDT         0.0979
     35 H9         10.6507   -9.0200   10.6030 H         1 HDT         0.0549
     36 H10         9.2657   -8.6896    8.5825 H         1 HDT         0.0611
     37 H11         7.5582   -9.2331    5.5715 H         1 HDT         0.1634
     38 H12         8.9533   -9.1820    6.5968 H         1 HDT         0.1634
     39 H13         7.1402  -12.3106    9.4362 H         1 HDT         0.0611
     40 H14        10.0627  -11.8216   12.9408 H         1 HDT         0.2224
     41 H15        16.2141   -5.6392   11.4993 H         1 HDT         0.2774
@<TRIPOS>BOND
     1   13    1 ar 
     2    1   23 ar 
     3    2    3 ar 
     4    2    4 ar 
     5   10    2 1  
     6    3    7 ar 
     7    4    5 ar 
     8    5    6 ar 
     9    7    6 ar 
    10    9    8 ar 
    11    9   10 1  
    12   10   11 2  
    13    8   12 ar 
    14   13   16 ar 
    15   24   13 1  
    16   15   14 ar 
    17   14   24 1  
    18   14   25 ar 
    19   15    9 ar 
    20   16   17 ar 
    21   17   18 ar 
    22   18   20 1  
    23   18   23 ar 
    24   20   21 2  
    25   20   22 am 
    26   25   12 ar 
    27    4   26 1  
    28   26   11 1  
    29   20   19 2  
    30    1   27 1  
    31    3   28 1  
    32    5   29 1  
    33    6   30 1  
    34    7   31 1  
    35    8   32 1  
    36   11   33 1  
    37   12   34 1  
    38   16   35 1  
    39   17   36 1  
    40   22   37 1  
    41   22   38 1  
    42   23   39 1  
    43   24   40 1  
    44   26   41 1  
@<TRIPOS>SUBSTRUCTURE
     1 HDT         1

