### 
### Created by X-TOOL on Mon Sep 10 21:12:51 2018
### 

@<TRIPOS>MOLECULE
1oiu_ligand
   50    53     1     0     0
SMALL
GAST_HUCK


@<TRIPOS>ATOM
      1 C2          7.9160   43.6120   49.8510 C.ar      1 N76         0.1794
      2 C8         10.5520   46.4410   52.0420 C.2       1 N76         0.1033
      3 C10         4.8670   45.3510   51.9070 C.3       1 N76         0.0801
      4 C11         4.0240   45.8620   53.0570 C.3       1 N76        -0.0121
      5 C12         2.5620   45.5450   52.7500 C.3       1 N76        -0.0477
      6 C13         1.6820   46.0090   53.9120 C.3       1 N76        -0.0527
      7 C14         2.1170   45.3790   55.2320 C.3       1 N76        -0.0530
      8 C15         3.6010   45.6060   55.5280 C.3       1 N76        -0.0527
      9 C16         4.4730   45.1740   54.3530 C.3       1 N76        -0.0477
     10 C19         3.9800   40.7090   48.5370 C.ar      1 N76        -0.0469
     11 C20         4.8080   40.9170   47.4370 C.ar      1 N76         0.0984
     12 N2          7.6260   42.6110   48.9930 N.pl3     1 N76        -0.2492
     13 C21         6.0320   41.5580   47.6210 C.ar      1 N76        -0.0119
     14 C22         6.4230   41.9980   48.8840 C.ar      1 N76         0.0660
     15 N26         4.0430   38.8600   46.0080 N.am      1 N76        -0.2611
     16 N1          6.9350   44.2280   50.5510 N.ar      1 N76        -0.2398
     17 C6          7.1960   45.2310   51.4250 C.ar      1 N76         0.1758
     18 O6          6.1920   45.8270   52.1090 O.3       1 N76        -0.2929
     19 C5          8.5840   45.6720   51.6220 C.ar      1 N76         0.1044
     20 N7          9.2230   46.6190   52.3980 N.2       1 N76        -0.3018
     21 N9         10.8110   45.4370   51.1020 N.pl3     1 N76        -0.2402
     22 C4          9.5550   44.9660   50.8410 C.ar      1 N76         0.1450
     23 N3          9.2100   43.9690   49.9980 N.ar      1 N76        -0.2565
     24 C17         5.5980   41.7740   49.9860 C.ar      1 N76        -0.0383
     25 C18         4.3750   41.1310   49.8100 C.ar      1 N76        -0.0697
     26 S23         4.3510   40.4270   45.9660 S.o2      1 N76         0.0633
     27 O24         5.3810   40.6740   45.0070 O.2       1 N76        -0.1507
     28 O25         3.1650   41.1500   45.6150 O.2       1 N76        -0.1507
     29 H1         11.3485   47.0481   52.4697 H         1 N76         0.1318
     30 H2          4.4721   45.7307   50.9531 H         1 N76         0.0630
     31 H3          4.8601   44.2511   51.8950 H         1 N76         0.0630
     32 H4          4.1507   46.9498   53.1596 H         1 N76         0.0328
     33 H5          2.4437   44.4602   52.6116 H         1 N76         0.0269
     34 H6          2.2594   46.0671   51.8303 H         1 N76         0.0269
     35 H7          0.6397   45.7237   53.7066 H         1 N76         0.0265
     36 H8          1.7524   47.1033   53.9984 H         1 N76         0.0265
     37 H9          1.9281   44.2964   55.1855 H         1 N76         0.0265
     38 H10         1.5233   45.8202   56.0462 H         1 N76         0.0265
     39 H11         3.8825   45.0222   56.4168 H         1 N76         0.0265
     40 H12         3.7678   46.6755   55.7238 H         1 N76         0.0265
     41 H13         5.5185   45.4452   54.5614 H         1 N76         0.0269
     42 H14         4.3949   44.0839   54.2280 H         1 N76         0.0269
     43 H15         3.0232   40.2168   48.4055 H         1 N76         0.0538
     44 H16         8.3804   42.2872   48.3710 H         1 N76         0.2163
     45 H17         6.6871   41.7160   46.7719 H         1 N76         0.0555
     46 H18         3.7454   38.3865   45.1790 H         1 N76         0.1635
     47 H19         4.1478   38.3526   46.8633 H         1 N76         0.1635
     48 H20        11.7132   45.1325   50.7093 H         1 N76         0.2380
     49 H21         5.9066   42.0983   50.9733 H         1 N76         0.0535
     50 H22         3.7279   40.9574   50.6621 H         1 N76         0.0588
@<TRIPOS>BOND
     1    1   12 1  
     2   16    1 ar 
     3    1   23 ar 
     4   20    2 2  
     5    2   21 1  
     6    3    4 1  
     7   18    3 1  
     8    4    5 1  
     9    4    9 1  
    10    5    6 1  
    11    6    7 1  
    12    8    7 1  
    13    9    8 1  
    14   11   10 ar 
    15   10   25 ar 
    16   13   11 ar 
    17   11   26 1  
    18   12   14 1  
    19   14   13 ar 
    20   14   24 ar 
    21   26   15 am 
    22   17   16 ar 
    23   17   18 1  
    24   19   17 ar 
    25   19   20 1  
    26   19   22 ar 
    27   21   22 1  
    28   22   23 ar 
    29   24   25 ar 
    30   26   27 2  
    31   26   28 2  
    32    2   29 1  
    33    3   30 1  
    34    3   31 1  
    35    4   32 1  
    36    5   33 1  
    37    5   34 1  
    38    6   35 1  
    39    6   36 1  
    40    7   37 1  
    41    7   38 1  
    42    8   39 1  
    43    8   40 1  
    44    9   41 1  
    45    9   42 1  
    46   10   43 1  
    47   12   44 1  
    48   13   45 1  
    49   15   46 1  
    50   15   47 1  
    51   21   48 1  
    52   24   49 1  
    53   25   50 1  
@<TRIPOS>SUBSTRUCTURE
     1 N76         1

