### 
### Created by X-TOOL on Mon Sep 10 21:12:52 2018
### 

@<TRIPOS>MOLECULE
1oiy_ligand
   49    52     1     0     0
SMALL
GAST_HUCK


@<TRIPOS>ATOM
      1 C2          7.8810   43.6980   49.5180 C.ar      1 N41         0.1808
      2 C10         4.8200   45.4890   51.6160 C.3       1 N41         0.0801
      3 C11         3.9450   46.0810   52.7150 C.3       1 N41        -0.0121
      4 C12         2.4610   45.7880   52.4180 C.3       1 N41        -0.0477
      5 C13         1.5010   46.0030   53.6110 C.3       1 N41        -0.0527
      6 C14         2.0960   45.5600   54.9590 C.3       1 N41        -0.0530
      7 C15         3.5120   46.1240   55.1780 C.3       1 N41        -0.0527
      8 C16         4.4390   45.5910   54.0960 C.3       1 N41        -0.0477
      9 C19         4.6900   40.7610   47.3980 C.ar      1 N41        -0.0515
     10 C20         3.8070   40.8290   48.4620 C.ar      1 N41         0.0375
     11 C21         4.2100   41.5200   49.6130 C.ar      1 N41        -0.0515
     12 C22         5.4670   42.1260   49.7170 C.ar      1 N41        -0.0323
     13 N25         1.8670   39.6660   49.4840 N.am      1 N41        -0.3018
     14 N1          6.8780   44.4040   50.1330 N.ar      1 N41        -0.2395
     15 C6          7.1250   45.4480   50.9660 C.ar      1 N41         0.1760
     16 O6          6.0940   46.1500   51.5500 O.3       1 N41        -0.2928
     17 C5          8.5350   45.8060   51.2070 C.ar      1 N41         0.1045
     18 N7          9.1820   46.7570   51.9440 N.2       1 N41        -0.3017
     19 N9         10.8140   45.4530   50.8500 N.pl3     1 N41        -0.2401
     20 C4          9.5360   45.0150   50.5430 C.ar      1 N41         0.1452
     21 N3          9.1970   44.0060   49.7220 N.ar      1 N41        -0.2561
     22 N2          7.5800   42.6460   48.6920 N.pl3     1 N41        -0.2464
     23 C17         6.3480   42.0640   48.6390 C.ar      1 N41         0.0693
     24 C18         5.9500   41.3700   47.4870 C.ar      1 N41        -0.0323
     25 C23         2.4220   40.2080   48.3820 C.2       1 N41         0.1937
     26 C8         10.5380   46.5190   51.7020 C.2       1 N41         0.1034
     27 O24         1.8160   40.2550   47.3140 O.2       1 N41        -0.3904
     28 H1          4.3071   45.6024   50.6495 H         1 N41         0.0630
     29 H2          4.9810   44.4207   51.8226 H         1 N41         0.0630
     30 H3          4.0678   47.1740   52.6972 H         1 N41         0.0328
     31 H4          2.3777   44.7389   52.0978 H         1 N41         0.0269
     32 H5          2.1402   46.4481   51.5986 H         1 N41         0.0269
     33 H6          0.5825   45.4259   53.4284 H         1 N41         0.0265
     34 H7          1.2553   47.0734   53.6729 H         1 N41         0.0265
     35 H8          2.1440   44.4613   54.9821 H         1 N41         0.0265
     36 H9          1.4429   45.9157   55.7695 H         1 N41         0.0265
     37 H10         3.8829   45.8124   56.1656 H         1 N41         0.0265
     38 H11         3.4818   47.2224   55.1274 H         1 N41         0.0265
     39 H12         5.4604   45.9589   54.2729 H         1 N41         0.0269
     40 H13         4.4363   44.4912   54.1185 H         1 N41         0.0269
     41 H14         4.4066   40.2354   46.4933 H         1 N41         0.0640
     42 H15         3.5251   41.5872   50.4505 H         1 N41         0.0640
     43 H16         5.7529   42.6391   50.6280 H         1 N41         0.0549
     44 H17         0.9560   39.2565   49.4352 H         1 N41         0.1805
     45 H18         2.3662   39.6733   50.3505 H         1 N41         0.1805
     46 H19        11.7236   45.0882   50.5332 H         1 N41         0.2380
     47 H20         8.3220   42.2766   48.0805 H         1 N41         0.2180
     48 H21         6.6316   41.3029   46.6467 H         1 N41         0.0549
     49 H22        11.3243   47.1255   52.1490 H         1 N41         0.1318
@<TRIPOS>BOND
     1    1   14 ar 
     2    1   21 ar 
     3   22    1 1  
     4    2    3 1  
     5   16    2 1  
     6    3    4 1  
     7    3    8 1  
     8    4    5 1  
     9    5    6 1  
    10    7    6 1  
    11    8    7 1  
    12   10    9 ar 
    13    9   24 ar 
    14   11   10 ar 
    15   10   25 1  
    16   12   11 ar 
    17   23   12 ar 
    18   25   13 am 
    19   14   15 ar 
    20   15   16 1  
    21   15   17 ar 
    22   17   18 1  
    23   20   17 ar 
    24   26   18 2  
    25   20   19 1  
    26   19   26 1  
    27   21   20 ar 
    28   22   23 1  
    29   23   24 ar 
    30   25   27 2  
    31    2   28 1  
    32    2   29 1  
    33    3   30 1  
    34    4   31 1  
    35    4   32 1  
    36    5   33 1  
    37    5   34 1  
    38    6   35 1  
    39    6   36 1  
    40    7   37 1  
    41    7   38 1  
    42    8   39 1  
    43    8   40 1  
    44    9   41 1  
    45   11   42 1  
    46   12   43 1  
    47   13   44 1  
    48   13   45 1  
    49   19   46 1  
    50   22   47 1  
    51   24   48 1  
    52   26   49 1  
@<TRIPOS>SUBSTRUCTURE
     1 N41         1

