### 
### Created by X-TOOL on Mon Sep 10 21:12:45 2018
### 

@<TRIPOS>MOLECULE
1okl_ligand
   31    32     1     0     0
SMALL
GAST_HUCK


@<TRIPOS>ATOM
      1 C1         -5.2670    2.0110   15.7090 C.ar      1 MNS         0.1099
      2 C2         -4.5510    1.5230   14.5980 C.ar      1 MNS        -0.0380
      3 C3         -4.0850    2.4330   13.6540 C.ar      1 MNS        -0.0621
      4 C4         -4.3270    3.8040   13.8100 C.ar      1 MNS        -0.0544
      5 C4A        -5.0370    4.3650   14.8970 C.ar      1 MNS         0.0095
      6 C5         -5.2940    5.7660   15.0740 C.ar      1 MNS         0.0537
      7 C6         -6.0160    6.1860   16.2070 C.ar      1 MNS        -0.0457
      8 C7         -6.4910    5.2760   17.1660 C.ar      1 MNS        -0.0783
      9 C8         -6.2330    3.9050   16.9830 C.ar      1 MNS        -0.0696
     10 C8A        -5.5130    3.4240   15.8650 C.ar      1 MNS        -0.0026
     11 N          -4.7820    6.7640   14.0340 N.pl3     1 MNS        -0.3105
     12 CM1        -3.5760    6.8600   14.1100 C.3       1 MNS         0.0171
     13 CM2        -5.4690    6.6220   12.9000 C.3       1 MNS         0.0171
     14 S          -5.8600    0.9290   16.8970 S.o2      1 MNS         0.0648
     15 O1S        -7.3490    1.0470   16.9670 O.2       1 MNS        -0.1509
     16 O2S        -5.2510    1.2730   18.2200 O.2       1 MNS        -0.1509
     17 N3S        -5.4860   -0.4700   16.5240 N.am      1 MNS        -0.2613
     18 H1         -4.3670    0.4611   14.4811 H         1 MNS         0.0632
     19 H2         -3.5311    2.0787   12.7922 H         1 MNS         0.0586
     20 H3         -3.9463    4.4769   13.0502 H         1 MNS         0.0631
     21 H4         -6.2114    7.2435   16.3436 H         1 MNS         0.0463
     22 H5         -7.0455    5.6233   18.0302 H         1 MNS         0.0573
     23 H6         -6.5963    3.1976   17.7197 H         1 MNS         0.0468
     24 H7         -3.2174    7.5792   13.3589 H         1 MNS         0.0483
     25 H8         -3.1175    5.8774   13.9249 H         1 MNS         0.0483
     26 H9         -3.2987    7.2106   15.1151 H         1 MNS         0.0483
     27 H10        -6.5434    6.5601   13.1275 H         1 MNS         0.0483
     28 H11        -5.1486    5.7015   12.3900 H         1 MNS         0.0483
     29 H12        -5.2818    7.4872   12.2470 H         1 MNS         0.0483
     30 H13        -5.7548   -1.2330   17.1118 H         1 MNS         0.1634
     31 H14        -4.9671   -0.6425   15.6868 H         1 MNS         0.1634
@<TRIPOS>BOND
     1    1   14 1  
     2    1   10 ar 
     3    1    2 ar 
     4    2    3 ar 
     5    3    4 ar 
     6    4    5 ar 
     7    5   10 ar 
     8    5    6 ar 
     9    6   11 1  
    10    6    7 ar 
    11    7    8 ar 
    12    8    9 ar 
    13    9   10 ar 
    14   11   13 1  
    15   11   12 1  
    16   14   17 am 
    17   14   16 2  
    18   14   15 2  
    19    2   18 1  
    20    3   19 1  
    21    4   20 1  
    22    7   21 1  
    23    8   22 1  
    24    9   23 1  
    25   12   24 1  
    26   12   25 1  
    27   12   26 1  
    28   13   27 1  
    29   13   28 1  
    30   13   29 1  
    31   17   30 1  
    32   17   31 1  
@<TRIPOS>SUBSTRUCTURE
     1 MNS         1

