### 
### Created by X-TOOL on Sun Sep  9 21:50:03 2018
### 

@<TRIPOS>MOLECULE
1oko_ligand
   24    24     1     0     0
SMALL
GAST_HUCK


@<TRIPOS>ATOM
      1 C1         22.0980   16.8310   45.2590 C.3       1 NON         0.1854
      2 C2         22.7590   15.4870   45.0500 C.3       1 NON         0.1339
      3 C3         24.0340   15.6740   44.2630 C.3       1 NON         0.1141
      4 C4         23.6870   16.3310   42.9410 C.3       1 NON         0.1119
      5 C5         22.8490   17.5710   43.1540 C.3       1 NON         0.1130
      6 C6         22.2680   18.0340   41.8290 C.3       1 NON         0.0730
      7 O1         20.9250   16.6420   46.0140 O.3       1 NON        -0.3649
      8 O2         23.0760   14.8160   46.2410 O.3       1 NON        -0.3841
      9 O3         24.5430   14.3910   44.0140 O.3       1 NON        -0.3864
     10 O4         22.9930   15.4110   42.1280 O.3       1 NON        -0.3865
     11 O5         21.7270   17.3070   43.9640 O.3       1 NON        -0.3407
     12 O6         21.7260   19.3220   42.0160 O.3       1 NON        -0.3924
     13 H1         22.7778   17.5343   45.7623 H         1 NON         0.0935
     14 H2         22.0681   14.8550   44.4728 H         1 NON         0.0671
     15 H3         24.7589   16.2844   44.8214 H         1 NON         0.0648
     16 H4         24.6198   16.6208   42.4352 H         1 NON         0.0647
     17 H5         23.4703   18.3591   43.6045 H         1 NON         0.0647
     18 H6         21.4781   17.3403   41.5052 H         1 NON         0.0584
     19 H7         23.0600   18.0697   41.0664 H         1 NON         0.0584
     20 H8         20.4624   17.4682   46.0905 H         1 NON         0.2126
     21 H9         22.2850   14.6885   46.7515 H         1 NON         0.2101
     22 H10        24.7627   13.9732   44.8384 H         1 NON         0.2100
     23 H11        22.8074   15.8109   41.2866 H         1 NON         0.2100
     24 H12        21.0454   19.2849   42.6778 H         1 NON         0.2095
@<TRIPOS>BOND
     1    1    2 1  
     2    1    7 1  
     3    1   11 1  
     4    2    3 1  
     5    2    8 1  
     6    3    4 1  
     7    3    9 1  
     8    4    5 1  
     9    4   10 1  
    10    5    6 1  
    11    5   11 1  
    12    6   12 1  
    13    1   13 1  
    14    2   14 1  
    15    3   15 1  
    16    4   16 1  
    17    5   17 1  
    18    6   18 1  
    19    6   19 1  
    20    7   20 1  
    21    8   21 1  
    22    9   22 1  
    23   10   23 1  
    24   12   24 1  
@<TRIPOS>SUBSTRUCTURE
     1 NON         1

