### 
### Created by X-TOOL on Mon Sep 10 21:12:50 2018
### 

@<TRIPOS>MOLECULE
1okx_ligand
  134   136     1     0     0
SMALL
GAST_HUCK


@<TRIPOS>ATOM
      1 C1        109.8950  -16.4450   13.0660 C.3       1 1BO        -0.0632
      2 C2        108.5890  -17.1710   13.3750 C.3       1 1BO        -0.0389
      3 C3        107.5410  -16.2120   13.9340 C.3       1 1BO         0.0371
      4 C4        106.3000  -17.0010   14.3220 C.2       1 1BO         0.1782
      5 OH        105.3210  -17.0610   13.5710 O.2       1 1BO        -0.3969
      6 N         106.3730  -17.6040   15.5090 N.am      1 ALA        -0.2659
      7 CA        105.2740  -18.4250   16.0180 C.3       1 ALA         0.1281
      8 C         104.6250  -17.7830   17.2380 C.2       1 ALA         0.2037
      9 O         105.2560  -17.0750   18.0200 O.2       1 ALA        -0.3944
     10 CB        105.8110  -19.8040   16.4060 C.3       1 ALA        -0.0244
     11 N         103.3410  -18.0600   17.3490 N.am      1 THR        -0.2613
     12 CA        102.5080  -17.5880   18.4470 C.3       1 THR         0.1565
     13 C         101.5450  -18.7320   18.7850 C.2       1 THR         0.2065
     14 O         100.9110  -19.2930   17.8940 O.2       1 THR        -0.3943
     15 CB        101.7570  -16.3010   18.0460 C.3       1 THR         0.0924
     16 OG1       100.9450  -15.8600   19.1340 O.3       1 THR        -0.3874
     17 CG2       100.9080  -16.4980   16.7770 C.3       1 THR        -0.0346
     18 N         101.4990  -19.0730   20.0790 N.am      1 THR        -0.2610
     19 CA        100.6410  -20.1580   20.6110 C.3       1 THR         0.1612
     20 C          99.1520  -19.8320   20.4200 C.2       1 THR         0.2068
     21 O          98.7710  -18.6640   20.3740 O.2       1 THR        -0.3943
     22 CB        100.9930  -20.3900   22.0840 C.3       1 THR         0.1247
     23 OG1       101.1700  -19.1440   22.7940 O.3       1 THR        -0.2673
     24 CG2       102.3000  -21.1790   22.1630 C.3       1 THR        -0.0298
     25 N          98.3410  -20.8970   20.3090 N.am      1 LEU        -0.2636
     26 CA         96.8850  -20.7590   20.0920 C.3       1 LEU         0.1312
     27 C          96.0930  -20.8790   21.4000 C.2       1 LEU         0.2039
     28 O          95.0290  -21.5050   21.4340 O.2       1 LEU        -0.3944
     29 CB         96.3810  -21.8230   19.1110 C.3       1 LEU        -0.0101
     30 CG         96.9770  -21.6210   17.7200 C.3       1 LEU        -0.0425
     31 CD1        96.4330  -22.6820   16.7610 C.3       1 LEU        -0.0625
     32 CD2        96.6660  -20.2200   17.1770 C.3       1 LEU        -0.0625
     33 N          96.6210  -20.2670   22.4550 N.am      1 SUJ        -0.2637
     34 CA         95.9370  -20.2810   23.7540 C.3       1 SUJ         0.1314
     35 C1         95.2960  -18.9070   24.0070 C.2       1 SUJ         0.2085
     36 O1         94.7290  -18.3380   23.0760 O.2       1 SUJ        -0.3941
     37 CB         96.8940  -20.6590   24.8840 C.3       1 SUJ        -0.0081
     38 CG         96.2330  -20.3920   26.2410 C.3       1 SUJ        -0.0006
     39 CD         96.0770  -18.8810   26.4300 C.3       1 SUJ         0.1452
     40 OD         97.3720  -18.2750   26.5670 O.3       1 SUJ        -0.3697
     41 N2         95.3600  -18.2650   25.2690 N.am      1 SUJ        -0.2206
     42 C2         94.6890  -16.9550   25.4170 C.3       1 SUJ         0.1616
     43 C3         93.2850  -17.1500   25.9980 C.3       1 SUJ         0.0927
     44 C4         92.3740  -17.8510   24.9950 C.3       1 SUJ        -0.0345
     45 O3         93.3620  -17.8970   27.2080 O.3       1 SUJ        -0.3874
     46 C          95.5340  -16.0280   26.3050 C.2       1 SUJ         0.2069
     47 O          95.2870  -15.9110   27.5050 O.2       1 SUJ        -0.3943
     48 N          96.5200  -15.3590   25.6720 N.am      1 CNT        -0.2620
     49 CA         96.7360  -15.5040   24.2070 C.3       1 CNT         0.1390
     50 CB         96.3010  -14.2170   23.4890 C.3       1 CNT         0.0164
     51 CG         94.8080  -13.9890   23.6790 C.ar      1 CNT        -0.0487
     52 CD2        93.9050  -14.5090   22.7430 C.ar      1 CNT        -0.0546
     53 CE2        92.5280  -14.3670   22.9460 C.ar      1 CNT         0.0613
     54 CL         91.4080  -15.0690   21.7690 Cl        1 CNT        -0.0805
     55 CZ         92.0460  -13.6950   24.0860 C.ar      1 CNT         0.0949
     56 OH         90.7080  -13.5520   24.2850 O.3       1 CNT        -0.3367
     57 CD1        92.9500  -13.1690   25.0220 C.ar      1 CNT        -0.0390
     58 CE1        94.3330  -13.3160   24.8180 C.ar      1 CNT        -0.0683
     59 C          98.1920  -15.8300   23.8650 C.2       1 CNT         0.2058
     60 O          98.8380  -15.1160   23.1010 O.2       1 CNT        -0.3942
     61 N          98.6750  -16.9230   24.4300 N.am      1 VAL        -0.2620
     62 CA        100.0550  -17.3640   24.1860 C.3       1 VAL         0.1445
     63 C         100.0180  -18.6440   23.3380 C.2       1 VAL         0.2603
     64 O          98.9010  -19.1830   23.1530 O.2       1 VAL        -0.3678
     65 CB        100.7600  -17.6200   25.5350 C.3       1 VAL        -0.0049
     66 CG1       100.8000  -16.3430   26.3680 C.3       1 VAL        -0.0583
     67 CG2       102.1860  -18.1420   25.3400 C.3       1 VAL        -0.0583
     68 H1        110.6272  -17.1618   12.6660 H         1 1BO         0.0231
     69 H2        110.2902  -15.9930   13.9877 H         1 1BO         0.0231
     70 H3        109.7091  -15.6568   12.3215 H         1 1BO         0.0231
     71 H4        108.7842  -17.9602   14.1160 H         1 1BO         0.0287
     72 H5        108.2031  -17.6240   12.4499 H         1 1BO         0.0287
     73 H6        107.2789  -15.4663   13.1690 H         1 1BO         0.0502
     74 H7        107.9448  -15.7014   14.8207 H         1 1BO         0.0502
     75 H8        107.1974  -17.4926   16.0639 H         1 ALA         0.1882
     76 H9        104.5171  -18.5375   15.2278 H         1 ALA         0.0797
     77 H10       104.9870  -20.4238   16.7892 H         1 ALA         0.0277
     78 H11       106.5790  -19.6924   17.1856 H         1 ALA         0.0277
     79 H12       106.2531  -20.2873   15.5223 H         1 ALA         0.0277
     80 H13       102.9159  -18.6245   16.6414 H         1 THR         0.1884
     81 H14       103.1373  -17.3689   19.3222 H         1 THR         0.0826
     82 H15       102.5042  -15.5221   17.8341 H         1 THR         0.0639
     83 H16       100.3160  -16.5373   19.3531 H         1 THR         0.2101
     84 H17       100.3931  -15.5577   16.5307 H         1 THR         0.0257
     85 H18       100.1635  -17.2884   16.9529 H         1 THR         0.0257
     86 H19       101.5607  -16.7886   15.9406 H         1 THR         0.0257
     87 H20       102.0751  -18.5679   20.7216 H         1 THR         0.1884
     88 H21       100.8591  -21.0808   20.0535 H         1 THR         0.0830
     89 H22       100.1842  -20.9641   22.5597 H         1 THR         0.0696
     90 H23       102.5614  -21.3508   23.2176 H         1 THR         0.0260
     91 H24       103.1032  -20.6079   21.6745 H         1 THR         0.0260
     92 H25       102.1759  -22.1461   21.6538 H         1 THR         0.0260
     93 H26        98.7351  -21.8137   20.3753 H         1 LEU         0.1883
     94 H27        96.6970  -19.7644   19.6614 H         1 LEU         0.0800
     95 H28        95.2850  -21.7584   19.0441 H         1 LEU         0.0315
     96 H29        96.6677  -22.8178   19.4827 H         1 LEU         0.0315
     97 H30        98.0690  -21.7334   17.7893 H         1 LEU         0.0298
     98 H31        96.8668  -22.5299   15.7616 H         1 LEU         0.0232
     99 H32        95.3379  -22.5963   16.7023 H         1 LEU         0.0232
    100 H33        96.7033  -23.6825   17.1296 H         1 LEU         0.0232
    101 H34        97.0595  -19.4623   17.8706 H         1 LEU         0.0232
    102 H35        95.5772  -20.0978   17.0797 H         1 LEU         0.0232
    103 H36        97.1385  -20.0955   16.1915 H         1 LEU         0.0232
    104 H37        97.4955  -19.7908   22.3628 H         1 SUJ         0.1883
    105 H38        95.1381  -21.0362   23.7174 H         1 SUJ         0.0800
    106 H39        97.8114  -20.0578   24.8010 H         1 SUJ         0.0314
    107 H40        97.1468  -21.7267   24.8056 H         1 SUJ         0.0314
    108 H41        96.8625  -20.8012   27.0449 H         1 SUJ         0.0313
    109 H42        95.2434  -20.8715   26.2701 H         1 SUJ         0.0313
    110 H43        95.4947  -18.6969   27.3449 H         1 SUJ         0.0869
    111 H44        97.2698  -17.3423   26.7152 H         1 SUJ         0.2122
    112 H45        94.5938  -16.4932   24.4232 H         1 SUJ         0.0829
    113 H46        92.8588  -16.1610   26.2224 H         1 SUJ         0.0639
    114 H47        91.3740  -17.9790   25.4351 H         1 SUJ         0.0257
    115 H48        92.7935  -18.8367   24.7452 H         1 SUJ         0.0257
    116 H49        92.2975  -17.2428   24.0816 H         1 SUJ         0.0257
    117 H50        93.9322  -17.4475   27.8206 H         1 SUJ         0.2101
    118 H51        97.1175  -14.7537   26.1979 H         1 CNT         0.1885
    119 H52        96.1083  -16.3334   23.8493 H         1 CNT         0.0821
    120 H53        96.5210  -14.3077   22.4151 H         1 CNT         0.0453
    121 H54        96.8550  -13.3631   23.9060 H         1 CNT         0.0453
    122 H55        94.2730  -15.0214   21.8615 H         1 CNT         0.0535
    123 H56        90.5583  -13.0785   25.0949 H         1 CNT         0.2462
    124 H57        92.5825  -12.6506   25.9002 H         1 CNT         0.0525
    125 H58        95.0333  -12.9103   25.5391 H         1 CNT         0.0532
    126 H59        98.0890  -17.4608   25.0361 H         1 VAL         0.1885
    127 H60       100.5999  -16.5812   23.6381 H         1 VAL         0.0819
    128 H61       100.1843  -18.3799   26.0838 H         1 VAL         0.0344
    129 H62       101.3052  -16.5446   27.3241 H         1 VAL         0.0235
    130 H63        99.7732  -15.9990   26.5613 H         1 VAL         0.0235
    131 H64       101.3505  -15.5645   25.8195 H         1 VAL         0.0235
    132 H65       102.1603  -19.0632   24.7394 H         1 VAL         0.0235
    133 H66       102.6354  -18.3563   26.3209 H         1 VAL         0.0235
    134 H67       102.7868  -17.3817   24.8196 H         1 VAL         0.0235
@<TRIPOS>BOND
     1    1    2 1  
     2    2    3 1  
     3    3    4 1  
     4    4    5 2  
     5    4    6 am 
     6    6    7 1  
     7    7    8 1  
     8    7   10 1  
     9    8    9 2  
    10    8   11 am 
    11   11   12 1  
    12   12   13 1  
    13   12   15 1  
    14   13   14 2  
    15   13   18 am 
    16   15   16 1  
    17   15   17 1  
    18   18   19 1  
    19   19   20 1  
    20   19   22 1  
    21   20   21 2  
    22   20   25 am 
    23   22   23 1  
    24   22   24 1  
    25   23   63 1  
    26   25   26 1  
    27   26   27 1  
    28   26   29 1  
    29   27   28 2  
    30   27   33 am 
    31   29   30 1  
    32   30   31 1  
    33   30   32 1  
    34   33   34 1  
    35   34   35 1  
    36   34   37 1  
    37   35   36 2  
    38   35   41 am 
    39   37   38 1  
    40   38   39 1  
    41   39   40 1  
    42   39   41 1  
    43   41   42 1  
    44   42   43 1  
    45   42   46 1  
    46   43   44 1  
    47   43   45 1  
    48   46   47 2  
    49   46   48 am 
    50   48   49 1  
    51   49   50 1  
    52   49   59 1  
    53   50   51 1  
    54   51   52 ar 
    55   51   58 ar 
    56   52   53 ar 
    57   53   54 1  
    58   53   55 ar 
    59   55   56 1  
    60   55   57 ar 
    61   57   58 ar 
    62   59   60 2  
    63   59   61 am 
    64   61   62 1  
    65   62   63 1  
    66   62   65 1  
    67   63   64 2  
    68   65   66 1  
    69   65   67 1  
    70    1   68 1  
    71    1   69 1  
    72    1   70 1  
    73    2   71 1  
    74    2   72 1  
    75    3   73 1  
    76    3   74 1  
    77    6   75 1  
    78    7   76 1  
    79   10   77 1  
    80   10   78 1  
    81   10   79 1  
    82   11   80 1  
    83   12   81 1  
    84   15   82 1  
    85   16   83 1  
    86   17   84 1  
    87   17   85 1  
    88   17   86 1  
    89   18   87 1  
    90   19   88 1  
    91   22   89 1  
    92   24   90 1  
    93   24   91 1  
    94   24   92 1  
    95   25   93 1  
    96   26   94 1  
    97   29   95 1  
    98   29   96 1  
    99   30   97 1  
   100   31   98 1  
   101   31   99 1  
   102   31  100 1  
   103   32  101 1  
   104   32  102 1  
   105   32  103 1  
   106   33  104 1  
   107   34  105 1  
   108   37  106 1  
   109   37  107 1  
   110   38  108 1  
   111   38  109 1  
   112   39  110 1  
   113   40  111 1  
   114   42  112 1  
   115   43  113 1  
   116   44  114 1  
   117   44  115 1  
   118   44  116 1  
   119   45  117 1  
   120   48  118 1  
   121   49  119 1  
   122   50  120 1  
   123   50  121 1  
   124   52  122 1  
   125   56  123 1  
   126   57  124 1  
   127   58  125 1  
   128   61  126 1  
   129   62  127 1  
   130   65  128 1  
   131   66  129 1  
   132   66  130 1  
   133   66  131 1  
   134   67  132 1  
   135   67  133 1  
   136   67  134 1  
@<TRIPOS>SUBSTRUCTURE
     1 1BO         1

