### 
### Created by X-TOOL on Mon Sep 10 21:12:52 2018
### 

@<TRIPOS>MOLECULE
1oky_ligand
   60    67     1     0     0
SMALL
GAST_HUCK


@<TRIPOS>ATOM
      1 C1         79.0350   16.3860   11.2820 C.ar      1 STU        -0.0664
      2 C2         77.8990   17.1580   10.9460 C.ar      1 STU        -0.0736
      3 C3         77.9010   18.5690   11.1480 C.ar      1 STU        -0.0719
      4 C4         79.0390   19.2190   11.6900 C.ar      1 STU        -0.0387
      5 C5         80.1720   18.4500   12.0230 C.ar      1 STU         0.0725
      6 N6         81.4560   18.6890   12.5280 N.pl3     1 STU        -0.2262
      7 C7         82.1620   17.5250   12.6060 C.ar      1 STU         0.1108
      8 C8         83.5010   17.2790   12.9720 C.ar      1 STU         0.1125
      9 N9         84.4620   18.1500   13.3760 N.pl3     1 STU        -0.2281
     10 C10        85.6630   17.4770   13.5610 C.ar      1 STU         0.0732
     11 C11        86.9680   17.8380   13.9420 C.ar      1 STU        -0.0386
     12 C12        87.9610   16.8310   14.0070 C.ar      1 STU        -0.0721
     13 C13        87.6450   15.4760   13.6890 C.ar      1 STU        -0.0738
     14 C14        86.3290   15.1170   13.3060 C.ar      1 STU        -0.0666
     15 C15        85.3640   16.1270   13.2480 C.ar      1 STU         0.0002
     16 C16        84.0490   16.0220   12.8990 C.ar      1 STU         0.0157
     17 C17        83.2170   14.9360   12.4400 C.ar      1 STU         0.0411
     18 C18        83.4570   13.6030   12.2610 C.2       1 STU         0.2093
     19 N19        82.2810   13.0800   11.7860 N.2       1 STU        -0.2626
     20 C20        81.3250   14.0980   11.6890 C.2       1 STU         0.0167
     21 C21        81.9340   15.2170   12.0980 C.ar      1 STU         0.0073
     22 C22        81.3610   16.5220   12.1640 C.ar      1 STU         0.0099
     23 C23        80.1540   17.0530   11.8120 C.ar      1 STU        -0.0005
     24 C24        81.9390   19.9300   12.8720 C.3       1 STU         0.2022
     25 C25        82.5570   20.6210   11.6100 C.3       1 STU         0.1556
     26 C26        83.7480   21.4550   12.0550 C.3       1 STU         0.0142
     27 C27        84.8470   20.5230   12.5590 C.3       1 STU         0.0460
     28 C28        84.2780   19.5950   13.6580 C.3       1 STU         0.1695
     29 O29        82.8890   19.8450   13.9800 O.3       1 STU        -0.3144
     30 O30        84.4930   12.9810   12.5040 O.2       1 STU        -0.3303
     31 N31        84.2510   22.2420   10.9160 N.4       1 STU         0.2291
     32 C32        83.7160   23.5440   10.4810 C.3       1 STU        -0.0445
     33 O33        83.0910   19.6450   10.6910 O.3       1 STU        -0.3686
     34 C34        82.1780   19.4040    9.6140 C.3       1 STU         0.0373
     35 C35        80.7910   20.8240   13.4030 C.3       1 STU        -0.0059
     36 H1         79.0432   15.3120   11.1354 H         1 STU         0.0585
     37 H2         77.0216   16.6740   10.5324 H         1 STU         0.0521
     38 H3         77.0248   19.1505   10.8850 H         1 STU         0.0577
     39 H4         79.0373   20.2917   11.8459 H         1 STU         0.0544
     40 H5         87.2088   18.8675   14.1813 H         1 STU         0.0544
     41 H6         88.9712   17.0917   14.3012 H         1 STU         0.0575
     42 H7         88.4168   14.7166   13.7408 H         1 STU         0.0521
     43 H8         86.0779   14.0903   13.0652 H         1 STU         0.0583
     44 H9         80.2950   13.9993   11.3496 H         1 STU         0.1090
     45 H10        81.7991   21.2449   11.1137 H         1 STU         0.0710
     46 H11        83.4412   22.1347   12.8636 H         1 STU         0.0880
     47 H12        85.6712   21.1207   12.9754 H         1 STU         0.0373
     48 H13        85.2217   19.9136   11.7234 H         1 STU         0.0373
     49 H14        84.8574   19.8166   14.5664 H         1 STU         0.0939
     50 H15        84.1671   21.6367   10.1144 H         1 STU         0.2014
     51 H16        85.2259   22.4055   11.1131 H         1 STU         0.2014
     52 H17        84.2820   23.8995    9.6073 H         1 STU         0.0777
     53 H18        83.8110   24.2717   11.3003 H         1 STU         0.0777
     54 H19        82.6556   23.4328   10.2104 H         1 STU         0.0777
     55 H20        82.6076   18.6581    8.9291 H         1 STU         0.0524
     56 H21        81.9986   20.3422    9.0685 H         1 STU         0.0524
     57 H22        81.2267   19.0266   10.0172 H         1 STU         0.0524
     58 H23        81.1912   21.8121   13.6740 H         1 STU         0.0284
     59 H24        80.3412   20.3547   14.2904 H         1 STU         0.0284
     60 H25        80.0254   20.9402   12.6218 H         1 STU         0.0284
@<TRIPOS>BOND
     1    1    2 ar 
     2    1   23 ar 
     3    2    3 ar 
     4    3    4 ar 
     5    4    5 ar 
     6    5    6 1  
     7    5   23 ar 
     8    6    7 1  
     9    6   24 1  
    10    7    8 ar 
    11    7   22 ar 
    12    8    9 1  
    13    8   16 ar 
    14    9   10 1  
    15    9   28 1  
    16   10   11 ar 
    17   10   15 ar 
    18   11   12 ar 
    19   12   13 ar 
    20   13   14 ar 
    21   14   15 ar 
    22   15   16 1  
    23   16   17 ar 
    24   17   18 1  
    25   17   21 ar 
    26   18   19 1  
    27   18   30 2  
    28   19   20 2  
    29   20   21 1  
    30   21   22 ar 
    31   22   23 1  
    32   24   25 1  
    33   24   29 1  
    34   24   35 1  
    35   25   26 1  
    36   25   33 1  
    37   26   27 1  
    38   26   31 1  
    39   27   28 1  
    40   28   29 1  
    41   31   32 1  
    42   33   34 1  
    43    1   36 1  
    44    2   37 1  
    45    3   38 1  
    46    4   39 1  
    47   11   40 1  
    48   12   41 1  
    49   13   42 1  
    50   14   43 1  
    51   20   44 1  
    52   25   45 1  
    53   26   46 1  
    54   27   47 1  
    55   27   48 1  
    56   28   49 1  
    57   31   50 1  
    58   31   51 1  
    59   32   52 1  
    60   32   53 1  
    61   32   54 1  
    62   34   55 1  
    63   34   56 1  
    64   34   57 1  
    65   35   58 1  
    66   35   59 1  
    67   35   60 1  
@<TRIPOS>SUBSTRUCTURE
     1 STU         1

