### 
### Created by X-TOOL on Mon Sep 10 21:12:51 2018
### 

@<TRIPOS>MOLECULE
1okz_ligand
   63    70     1     0     0
SMALL
GAST_HUCK


@<TRIPOS>ATOM
      1 O37        80.9020   13.8910   10.2140 O.3       1 UCN        -0.3582
      2 C9         81.1280   13.7990   11.6220 C.3       1 UCN         0.1708
      3 N1         82.2770   12.9040   11.8560 N.am      1 UCN        -0.2534
      4 C8         83.4030   13.4720   12.2900 C.2       1 UCN         0.1891
      5 O5         84.4710   12.8950   12.4800 O.2       1 UCN        -0.3964
      6 C7         83.1300   14.8290   12.4390 C.ar      1 UCN         0.0346
      7 C6         83.9320   15.8670   12.9040 C.ar      1 UCN        -0.0017
      8 C5         85.2640   15.9880   13.2780 C.ar      1 UCN        -0.0071
      9 C20        85.5230   17.3170   13.6100 C.ar      1 UCN         0.0681
     10 C1         86.8070   17.6820   14.0000 C.ar      1 UCN        -0.0404
     11 C2         87.8030   16.7080   14.0470 C.ar      1 UCN        -0.0732
     12 C3         87.5260   15.3840   13.7140 C.ar      1 UCN        -0.0750
     13 C4         86.2440   15.0030   13.3240 C.ar      1 UCN        -0.0685
     14 N3         84.3650   17.9640   13.4380 N.pl3     1 UCN        -0.2376
     15 C19        83.4040   17.1440   13.0140 C.ar      1 UCN         0.0952
     16 C18        82.0830   17.4070   12.6570 C.ar      1 UCN         0.0979
     17 N2         81.3980   18.5470   12.5510 N.pl3     1 UCN        -0.2292
     18 C17        80.1850   18.3440   12.0140 C.ar      1 UCN         0.0695
     19 C12        80.1070   16.9730   11.7830 C.ar      1 UCN        -0.0074
     20 C13        78.9990   16.3660   11.1960 C.ar      1 UCN        -0.0696
     21 C14        77.9300   17.1800   10.8300 C.ar      1 UCN        -0.0759
     22 C15        77.9880   18.5550   11.0530 C.ar      1 UCN        -0.0739
     23 C16        79.1070   19.1410   11.6430 C.ar      1 UCN        -0.0408
     24 C11        81.2900   16.3770   12.1870 C.ar      1 UCN         0.0037
     25 C10        81.8110   15.0870   12.0830 C.ar      1 UCN         0.0127
     26 C21        81.8530   19.7470   12.9370 C.3       1 UCN         0.2020
     27 O4         82.7900   19.6320   14.0170 O.3       1 UCN        -0.3149
     28 C25        84.1780   19.4050   13.7150 C.3       1 UCN         0.1668
     29 C24        84.7390   20.2940   12.6000 C.3       1 UCN         0.0455
     30 C23        83.6610   21.2910   12.1770 C.3       1 UCN         0.0141
     31 N4         84.1710   22.1330   11.0850 N.4       1 UCN         0.2291
     32 C28        83.6830   23.4790   10.7510 C.3       1 UCN        -0.0445
     33 C22        82.4190   20.5120   11.7330 C.3       1 UCN         0.1556
     34 O6         82.8350   19.5730   10.7300 O.3       1 UCN        -0.3686
     35 C27        82.2230   19.8780    9.4730 C.3       1 UCN         0.0373
     36 C26        80.7320   20.6110   13.5240 C.3       1 UCN        -0.0059
     37 H1         80.1634   14.4655   10.0498 H         1 UCN         0.2154
     38 H2         80.2163   13.5344   12.1777 H         1 UCN         0.1031
     39 H3         82.2147   11.9187   11.6969 H         1 UCN         0.1889
     40 H4         87.0301   18.7095   14.2637 H         1 UCN         0.0539
     41 H5         88.8073   16.9847   14.3469 H         1 UCN         0.0568
     42 H6         88.3158   14.6429   13.7588 H         1 UCN         0.0516
     43 H7         86.0185   13.9747   13.0655 H         1 UCN         0.0576
     44 H8         78.9699   15.2952   11.0296 H         1 UCN         0.0566
     45 H9         77.0506   16.7434   10.3706 H         1 UCN         0.0516
     46 H10        77.1498   19.1783   10.7631 H         1 UCN         0.0561
     47 H11        79.1368   20.2114   11.8116 H         1 UCN         0.0538
     48 H12        84.7515   19.6461   14.6221 H         1 UCN         0.0933
     49 H13        85.0252   19.6716   11.7394 H         1 UCN         0.0372
     50 H14        85.6212   20.8376   12.9690 H         1 UCN         0.0372
     51 H15        83.3991   21.9322   13.0316 H         1 UCN         0.0880
     52 H16        84.0464   21.5878   10.2464 H         1 UCN         0.2014
     53 H17        85.1555   22.2440   11.2704 H         1 UCN         0.2014
     54 H18        84.2459   23.8701    9.8907 H         1 UCN         0.0777
     55 H19        83.8242   24.1451   11.6149 H         1 UCN         0.0777
     56 H20        82.6138   23.4290   10.4974 H         1 UCN         0.0777
     57 H21        81.6593   21.1964   11.3275 H         1 UCN         0.0710
     58 H22        82.5530   19.1492    8.7181 H         1 UCN         0.0524
     59 H23        82.5166   20.8903    9.1582 H         1 UCN         0.0524
     60 H24        81.1290   19.8290    9.5763 H         1 UCN         0.0524
     61 H25        81.1415   21.5854   13.8289 H         1 UCN         0.0284
     62 H26        80.2993   20.1050   14.3996 H         1 UCN         0.0284
     63 H27        79.9505   20.7630   12.7650 H         1 UCN         0.0284
@<TRIPOS>BOND
     1    1    2 1  
     2    2    3 1  
     3    2   25 1  
     4    3    4 am 
     5    4    5 2  
     6    4    6 1  
     7    6    7 ar 
     8    6   25 ar 
     9    7    8 1  
    10    7   15 ar 
    11    8    9 ar 
    12    8   13 ar 
    13    9   10 ar 
    14    9   14 1  
    15   10   11 ar 
    16   11   12 ar 
    17   12   13 ar 
    18   14   15 1  
    19   14   28 1  
    20   15   16 ar 
    21   16   17 1  
    22   16   24 ar 
    23   17   18 1  
    24   17   26 1  
    25   18   19 ar 
    26   18   23 ar 
    27   19   20 ar 
    28   19   24 1  
    29   20   21 ar 
    30   21   22 ar 
    31   22   23 ar 
    32   24   25 ar 
    33   26   27 1  
    34   26   33 1  
    35   26   36 1  
    36   27   28 1  
    37   28   29 1  
    38   29   30 1  
    39   30   31 1  
    40   30   33 1  
    41   31   32 1  
    42   33   34 1  
    43   34   35 1  
    44    1   37 1  
    45    2   38 1  
    46    3   39 1  
    47   10   40 1  
    48   11   41 1  
    49   12   42 1  
    50   13   43 1  
    51   20   44 1  
    52   21   45 1  
    53   22   46 1  
    54   23   47 1  
    55   28   48 1  
    56   29   49 1  
    57   29   50 1  
    58   30   51 1  
    59   31   52 1  
    60   31   53 1  
    61   32   54 1  
    62   32   55 1  
    63   32   56 1  
    64   33   57 1  
    65   35   58 1  
    66   35   59 1  
    67   35   60 1  
    68   36   61 1  
    69   36   62 1  
    70   36   63 1  
@<TRIPOS>SUBSTRUCTURE
     1 UCN         1

