### 
### Created by X-TOOL on Mon Sep 10 21:12:51 2018
### 

@<TRIPOS>MOLECULE
1om1_ligand
   33    36     1     0     0
SMALL
GAST_HUCK


@<TRIPOS>ATOM
      1 O21        23.8570    7.3150   14.0900 O.co2     1 IQA        -0.5682
      2 C20        24.5430    6.4110   14.9470 C.2       1 IQA         0.0356
      3 O22        25.3990    5.5830   14.4000 O.co2     1 IQA        -0.5682
      4 C18        24.2740    6.4130   16.4580 C.3       1 IQA         0.0067
      5 C5         23.2490    7.3080   17.3260 C.2       1 IQA        -0.0143
      6 C8         22.9800    6.9520   18.5770 C.2       1 IQA         0.1802
      7 N11        23.5250    5.8420   19.2160 N.am      1 IQA        -0.2113
      8 C10        23.1860    5.5330   20.5550 C.2       1 IQA         0.2295
      9 O19        23.7030    4.5200   21.0930 O.2       1 IQA        -0.3829
     10 C12        22.2270    6.3940   21.3240 C.ar      1 IQA         0.0869
     11 C17        21.8850    6.0760   22.6850 C.ar      1 IQA        -0.0474
     12 C16        20.9700    6.8950   23.4230 C.ar      1 IQA        -0.0650
     13 C15        20.3850    8.0360   22.8270 C.ar      1 IQA        -0.0639
     14 C14        20.7110    8.3770   21.4610 C.ar      1 IQA        -0.0248
     15 C13        21.6440    7.5680   20.6640 C.ar      1 IQA         0.1107
     16 N9         22.0490    7.8370   19.2380 N.pl3     1 IQA        -0.1956
     17 C7         21.7140    8.8400   18.2880 C.ar      1 IQA         0.0730
     18 C6         22.4400    8.5520   17.0800 C.ar      1 IQA        -0.0365
     19 C4         22.3050    9.4130   15.9120 C.ar      1 IQA        -0.0849
     20 C1         21.4230   10.5590   16.0080 C.ar      1 IQA        -0.0871
     21 C2         20.7080   10.8340   17.2070 C.ar      1 IQA        -0.0836
     22 C3         20.8380    9.9880   18.3580 C.ar      1 IQA        -0.0490
     23 H1         25.2572    6.6198   16.9059 H         1 IQA         0.0457
     24 H2         23.9805    5.3765   16.6803 H         1 IQA         0.0457
     25 H3         24.1655    5.2542   18.7218 H         1 IQA         0.2319
     26 H4         22.3253    5.2056   23.1580 H         1 IQA         0.0644
     27 H5         20.7241    6.6378   24.4469 H         1 IQA         0.0554
     28 H6         19.6951    8.6522   23.3922 H         1 IQA         0.0630
     29 H7         20.2555    9.2524   21.0124 H         1 IQA         0.0576
     30 H8         22.8485    9.2024   14.9980 H         1 IQA         0.0473
     31 H9         21.3063   11.2162   15.1539 H         1 IQA         0.0493
     32 H10        20.0540   11.6974   17.2514 H         1 IQA         0.0468
     33 H11        20.2879   10.2060   19.2663 H         1 IQA         0.0528
@<TRIPOS>BOND
     1    1    2 ar 
     2    2    3 ar 
     3    2    4 1  
     4    4    5 1  
     5    5    6 2  
     6    5   18 1  
     7    6    7 1  
     8    6   16 1  
     9    7    8 am 
    10    8    9 2  
    11    8   10 1  
    12   10   11 ar 
    13   10   15 ar 
    14   11   12 ar 
    15   12   13 ar 
    16   13   14 ar 
    17   14   15 ar 
    18   15   16 1  
    19   16   17 1  
    20   17   18 ar 
    21   17   22 ar 
    22   18   19 ar 
    23   19   20 ar 
    24   20   21 ar 
    25   21   22 ar 
    26    4   23 1  
    27    4   24 1  
    28    7   25 1  
    29   11   26 1  
    30   12   27 1  
    31   13   28 1  
    32   14   29 1  
    33   19   30 1  
    34   20   31 1  
    35   21   32 1  
    36   22   33 1  
@<TRIPOS>SUBSTRUCTURE
     1 IQA         1

