### 
### Created by X-TOOL on Mon Sep 10 21:12:49 2018
### 

@<TRIPOS>MOLECULE
1ong_ligand
   33    35     1     0     0
SMALL
GAST_HUCK


@<TRIPOS>ATOM
      1 S1          5.5150   36.1880    4.2430 S.3       1 WY4        -0.0812
      2 C2          6.1350   37.7820    3.9190 C.2       1 WY4         0.0058
      3 C3          7.2430   38.3580    4.4250 C.2       1 WY4         0.0539
      4 N4          8.2020   37.6900    5.1990 N.2       1 WY4        -0.3086
      5 C5          8.4760   36.4180    5.5610 C.2       1 WY4         0.0220
      6 C6          7.9150   35.2510    5.1620 C.3       1 WY4         0.1035
      7 C7          8.4910   34.1160    5.8480 C.2       1 WY4         0.1236
      8 O8          9.4820   34.2610    6.5300 O.2       1 WY4        -0.3695
      9 C31         7.5060   39.7300    4.1280 C.2       1 WY4         0.0588
     10 O32         8.6090   40.1640    4.4150 O.co2     1 WY4        -0.5660
     11 O33         6.5480   40.4380    3.5330 O.co2     1 WY4        -0.5660
     12 C61         6.8760   35.0500    4.1130 C.3       1 WY4         0.0787
     13 C62         7.5500   34.9740    2.7200 C.2       1 WY4         0.0014
     14 N63         8.4940   34.0490    2.4070 N.2       1 WY4        -0.3302
     15 C64         8.9180   34.2500    1.2060 C.2       1 WY4         0.1369
     16 N65         8.2420   35.3460    0.6750 N.pl3     1 WY4        -0.2550
     17 C66         7.3870   35.7810    1.6210 C.2       1 WY4         0.0247
     18 C67         9.9830   33.4960    0.4230 C.3       1 WY4         0.1225
     19 O68        10.5280   34.4010   -0.5610 O.3       1 WY4        -0.3581
     20 C69         9.5350   34.9920   -1.3930 C.3       1 WY4         0.0781
     21 C70         8.5370   35.9190   -0.6600 C.3       1 WY4         0.0778
     22 H1          5.5569   38.3874    3.2225 H         1 WY4         0.0837
     23 H2          9.2770   36.3135    6.2914 H         1 WY4         0.1116
     24 H3          7.1167   35.3585    5.9111 H         1 WY4         0.0809
     25 H4          8.0347   33.1319    5.7518 H         1 WY4         0.1389
     26 H5          6.4408   34.0560    4.2933 H         1 WY4         0.0612
     27 H6          6.6952   36.6172    1.5308 H         1 WY4         0.0663
     28 H7          9.5341   32.6252   -0.0771 H         1 WY4         0.0797
     29 H8         10.7791   33.1584    1.1029 H         1 WY4         0.0797
     30 H9          8.9625   34.1824   -1.8692 H         1 WY4         0.0590
     31 H10        10.0459   35.5840   -2.1666 H         1 WY4         0.0590
     32 H11         8.9796   36.9192   -0.5431 H         1 WY4         0.0635
     33 H12         7.6073   35.9952   -1.2429 H         1 WY4         0.0635
@<TRIPOS>BOND
     1    1    2 1  
     2    1   12 1  
     3    2    3 2  
     4    3    4 1  
     5    3    9 1  
     6    4    5 2  
     7    5    6 1  
     8    6    7 1  
     9    6   12 1  
    10    7    8 2  
    11    9   10 ar 
    12    9   11 ar 
    13   12   13 1  
    14   13   14 1  
    15   13   17 2  
    16   14   15 2  
    17   15   16 1  
    18   15   18 1  
    19   16   17 1  
    20   16   21 1  
    21   18   19 1  
    22   19   20 1  
    23   20   21 1  
    24    2   22 1  
    25    5   23 1  
    26    6   24 1  
    27    7   25 1  
    28   12   26 1  
    29   17   27 1  
    30   18   28 1  
    31   18   29 1  
    32   20   30 1  
    33   20   31 1  
    34   21   32 1  
    35   21   33 1  
@<TRIPOS>SUBSTRUCTURE
     1 WY4         1

