### 
### Created by X-TOOL on Mon Sep 10 21:12:49 2018
### 

@<TRIPOS>MOLECULE
1onh_ligand
   33    35     1     0     0
SMALL
GAST_HUCK


@<TRIPOS>ATOM
      1 S1         21.1470   21.6840    6.6230 S.3       1 WY4        -0.1116
      2 C2         20.1030   22.4350    5.3830 C.3       1 WY4         0.0652
      3 C3         19.2750   21.6670    4.6560 C.2       1 WY4         0.0870
      4 N4         19.2190   20.2710    4.8640 N.2       1 WY4        -0.2915
      5 C5         18.8790   19.4950    5.9510 C.2       1 WY4         0.0041
      6 C6         19.2840   19.7610    7.2160 C.2       1 WY4         0.0361
      7 C7         19.2270   18.6840    8.1520 C.2       1 WY4         0.1227
      8 O8         19.2360   18.7880    9.3680 O.2       1 WY4        -0.3680
      9 C31        18.4710   22.2020    3.6040 C.2       1 WY4         0.1033
     10 O32        17.8390   21.4540    2.8540 O.co2     1 WY4        -0.5497
     11 O33        18.4490   23.5210    3.4430 O.co2     1 WY4        -0.5497
     12 C61        19.8670   21.0310    7.7230 C.3       1 WY4         0.0709
     13 C62        18.8590   22.1280    8.0660 C.2       1 WY4         0.0049
     14 N63        19.0470   23.1480    8.9180 N.2       1 WY4        -0.3286
     15 C64        17.9420   23.8420    8.9700 C.2       1 WY4         0.1374
     16 N65        17.0150   23.2960    8.1190 N.pl3     1 WY4        -0.2541
     17 C66        17.5980   22.2210    7.5350 C.2       1 WY4         0.0271
     18 C67        17.6240   25.0450    9.8010 C.3       1 WY4         0.1227
     19 O68        16.1860   25.2310    9.8050 O.3       1 WY4        -0.3580
     20 C69        15.6130   25.2590    8.4790 C.3       1 WY4         0.0782
     21 C70        15.6330   23.8000    7.9390 C.3       1 WY4         0.0781
     22 H1         20.7690   22.9470    4.6728 H         1 WY4         0.0649
     23 H2         19.4776   23.1777    5.8999 H         1 WY4         0.0649
     24 H3         18.2511   18.6211    5.7840 H         1 WY4         0.0719
     25 H4         19.1702   17.6764    7.7428 H         1 WY4         0.1315
     26 H5         20.3658   20.7710    8.6683 H         1 WY4         0.0682
     27 H6         17.1532   21.5615    6.7913 H         1 WY4         0.0675
     28 H7         18.1122   25.9325    9.3721 H         1 WY4         0.0797
     29 H8         17.9815   24.8910   10.8298 H         1 WY4         0.0797
     30 H9         16.2094   25.9115    7.8243 H         1 WY4         0.0590
     31 H10        14.5786   25.6305    8.5231 H         1 WY4         0.0590
     32 H11        14.9257   23.1767    8.5058 H         1 WY4         0.0635
     33 H12        15.3609   23.7869    6.8733 H         1 WY4         0.0635
@<TRIPOS>BOND
     1    1    2 1  
     2    1   12 1  
     3    2    3 1  
     4    3    4 2  
     5    3    9 1  
     6    4    5 1  
     7    5    6 2  
     8    6    7 1  
     9    6   12 1  
    10    7    8 2  
    11    9   10 ar 
    12    9   11 ar 
    13   12   13 1  
    14   13   14 1  
    15   13   17 2  
    16   14   15 2  
    17   15   16 1  
    18   15   18 1  
    19   16   17 1  
    20   16   21 1  
    21   18   19 1  
    22   19   20 1  
    23   20   21 1  
    24    2   22 1  
    25    2   23 1  
    26    5   24 1  
    27    7   25 1  
    28   12   26 1  
    29   17   27 1  
    30   18   28 1  
    31   18   29 1  
    32   20   30 1  
    33   20   31 1  
    34   21   32 1  
    35   21   33 1  
@<TRIPOS>SUBSTRUCTURE
     1 WY4         1

