### 
### Created by X-TOOL on Mon Sep 10 21:12:50 2018
### 

@<TRIPOS>MOLECULE
1ony_ligand
   73    74     1     0     0
SMALL
GAST_HUCK


@<TRIPOS>ATOM
      1 O6         35.6710   29.8200   23.1440 O.co2     1 588        -0.5453
      2 C24        34.7590   29.1810   23.5790 C.2       1 588         0.1551
      3 O7         33.9560   29.6860   24.5490 O.co2     1 588        -0.5453
      4 C8         34.4170   27.7530   23.0400 C.2       1 588         0.2956
      5 O5         34.5910   26.8000   23.8100 O.2       1 588        -0.3430
      6 N4         33.9380   27.5670   21.7210 N.am      1 588        -0.1658
      7 C2         33.4330   28.6840   21.0240 C.ar      1 588         0.0904
      8 C3         32.0940   29.0880   21.3370 C.ar      1 588        -0.0470
      9 C4         31.4900   30.1770   20.7050 C.ar      1 588        -0.0776
     10 C5         32.1920   30.9170   19.7280 C.ar      1 588        -0.0583
     11 C6         33.5260   30.5440   19.4040 C.ar      1 588        -0.0685
     12 C1         34.1720   29.4380   20.0350 C.ar      1 588        -0.0183
     13 C17        35.5990   29.0990   19.6500 C.3       1 588        -0.0061
     14 C18        35.7820   28.4400   18.2810 C.3       1 588         0.0449
     15 C19        37.2900   28.3820   17.9450 C.2       1 588         0.1752
     16 O1         37.7490   28.9720   16.9830 O.2       1 588        -0.3971
     17 N3         38.0360   27.6410   18.7820 N.am      1 588        -0.3008
     18 C7         31.5120   32.0760   19.0380 C.3       1 588         0.0104
     19 C9         30.9930   31.7420   17.5980 C.3       1 588         0.1335
     20 N1         30.3710   32.9350   17.0340 N.am      1 588        -0.2284
     21 S1         30.4780   33.2110   15.3140 S.o2      1 588         0.0385
     22 O4         29.3820   32.4670   14.7820 O.2       1 588        -0.1556
     23 O2         31.8110   32.8000   14.9720 O.2       1 588        -0.1556
     24 C20        30.2970   34.9470   15.0040 C.3       1 588         0.0734
     25 C11        30.0070   30.5400   17.6000 C.2       1 588         0.1995
     26 O8         30.4060   29.3810   17.5270 O.2       1 588        -0.3948
     27 N2         28.7050   30.9010   17.7040 N.am      1 588        -0.2853
     28 C12        27.6170   29.9150   17.7340 C.3       1 588         0.0309
     29 C13        26.4960   30.4050   18.6600 C.3       1 588        -0.0328
     30 C15        26.9050   30.3720   20.1420 C.3       1 588        -0.0515
     31 C14        26.2100   31.4580   20.9630 C.3       1 588        -0.0558
     32 C16        26.0020   31.0420   22.4230 C.3       1 588        -0.0653
     33 C26        33.9160   26.2600   21.0860 C.ar      1 588         0.1045
     34 C27        32.6720   25.8320   20.4640 C.ar      1 588        -0.0322
     35 C28        32.5230   24.5920   19.8160 C.ar      1 588        -0.0712
     36 C29        33.6050   23.7000   19.7520 C.ar      1 588        -0.0723
     37 C30        34.8370   24.0550   20.3350 C.ar      1 588        -0.0596
     38 C25        35.0350   25.3020   21.0030 C.ar      1 588         0.0353
     39 C31        36.4070   25.5070   21.5620 C.2       1 588         0.0559
     40 O9         36.9110   24.6060   22.1860 O.co2     1 588        -0.5652
     41 O10        37.0490   26.5370   21.4530 O.co2     1 588        -0.5652
     42 H1         31.5359   28.5342   22.0833 H         1 588         0.0488
     43 H2         30.4756   30.4563   20.9660 H         1 588         0.0468
     44 H3         34.0667   31.1149   18.6578 H         1 588         0.0462
     45 H4         35.9997   28.4130   20.4108 H         1 588         0.0426
     46 H5         36.1807   30.0326   19.6553 H         1 588         0.0426
     47 H6         35.2565   29.0294   17.5152 H         1 588         0.0522
     48 H7         35.3706   27.4201   18.3052 H         1 588         0.0522
     49 H8         39.0207   27.5547   18.6308 H         1 588         0.1814
     50 H9         37.6064   27.1759   19.5560 H         1 588         0.1814
     51 H10        32.2313   32.9048   18.9632 H         1 588         0.0445
     52 H11        30.6542   32.3891   19.6512 H         1 588         0.0445
     53 H12        31.8562   31.4697   16.9730 H         1 588         0.0774
     54 H13        29.8909   33.5844   17.6237 H         1 588         0.1703
     55 H14        30.3626   35.1350   13.9222 H         1 588         0.0482
     56 H15        31.0970   35.4972   15.5209 H         1 588         0.0482
     57 H16        29.3191   35.2860   15.3764 H         1 588         0.0482
     58 H17        28.4770   31.8729   17.7624 H         1 588         0.1851
     59 H18        28.0044   28.9551   18.1061 H         1 588         0.0520
     60 H19        27.2182   29.7803   16.7177 H         1 588         0.0520
     61 H20        25.6159   29.7597   18.5218 H         1 588         0.0285
     62 H21        26.2389   31.4392   18.3873 H         1 588         0.0285
     63 H22        27.9929   30.5187   20.2115 H         1 588         0.0266
     64 H23        26.6400   29.3895   20.5598 H         1 588         0.0266
     65 H24        25.2289   31.6683   20.5123 H         1 588         0.0263
     66 H25        26.8271   32.3683   20.9394 H         1 588         0.0263
     67 H26        25.5002   31.8552   22.9680 H         1 588         0.0230
     68 H27        26.9773   30.8361   22.8881 H         1 588         0.0230
     69 H28        25.3791   30.1362   22.4610 H         1 588         0.0230
     70 H29        31.8194   26.5004   20.5017 H         1 588         0.0527
     71 H30        31.5732   24.3257   19.3665 H         1 588         0.0601
     72 H31        33.4929   22.7425   19.2563 H         1 588         0.0505
     73 H32        35.6643   23.3571   20.2746 H         1 588         0.0614
@<TRIPOS>BOND
     1    1    2 ar 
     2    2    3 ar 
     3    2    4 1  
     4    4    5 2  
     5    4    6 am 
     6    6    7 1  
     7    6   33 1  
     8    7    8 ar 
     9    7   12 ar 
    10    8    9 ar 
    11    9   10 ar 
    12   10   11 ar 
    13   10   18 1  
    14   11   12 ar 
    15   12   13 1  
    16   13   14 1  
    17   14   15 1  
    18   15   16 2  
    19   15   17 am 
    20   18   19 1  
    21   19   20 1  
    22   19   25 1  
    23   20   21 am 
    24   21   22 2  
    25   21   23 2  
    26   21   24 1  
    27   25   26 2  
    28   25   27 am 
    29   27   28 1  
    30   28   29 1  
    31   29   30 1  
    32   30   31 1  
    33   31   32 1  
    34   33   34 ar 
    35   33   38 ar 
    36   34   35 ar 
    37   35   36 ar 
    38   36   37 ar 
    39   37   38 ar 
    40   38   39 1  
    41   39   40 ar 
    42   39   41 ar 
    43    8   42 1  
    44    9   43 1  
    45   11   44 1  
    46   13   45 1  
    47   13   46 1  
    48   14   47 1  
    49   14   48 1  
    50   17   49 1  
    51   17   50 1  
    52   18   51 1  
    53   18   52 1  
    54   19   53 1  
    55   20   54 1  
    56   24   55 1  
    57   24   56 1  
    58   24   57 1  
    59   27   58 1  
    60   28   59 1  
    61   28   60 1  
    62   29   61 1  
    63   29   62 1  
    64   30   63 1  
    65   30   64 1  
    66   31   65 1  
    67   31   66 1  
    68   32   67 1  
    69   32   68 1  
    70   32   69 1  
    71   34   70 1  
    72   35   71 1  
    73   36   72 1  
    74   37   73 1  
@<TRIPOS>SUBSTRUCTURE
     1 588         1

