### 
### Created by X-TOOL on Mon Sep 10 21:12:51 2018
### 

@<TRIPOS>MOLECULE
1oq5_ligand
   40    42     1     0     0
SMALL
GAST_HUCK


@<TRIPOS>ATOM
      1 S1         15.2890    2.8460   16.6520 S.o2      1 CEL         0.0642
      2 C15        15.9880    4.1960   15.7120 C.ar      1 CEL         0.1041
      3 C14        15.1860    5.2150   15.2560 C.ar      1 CEL        -0.0356
      4 C13        15.7540    6.3000   14.6040 C.ar      1 CEL        -0.0175
      5 C12        17.1130    6.3320   14.4410 C.ar      1 CEL         0.1295
      6 C17        17.9260    5.3110   14.8920 C.ar      1 CEL        -0.0175
      7 C16        17.3580    4.2110   15.5450 C.ar      1 CEL        -0.0356
      8 N2         17.6970    7.5280   13.8490 N.pl3     1 CEL        -0.1216
      9 C3         17.5200    8.1910   12.6670 C.2       1 CEL         0.1250
     10 C5         16.7620    7.8190   11.4780 C.ar      1 CEL         0.0111
     11 C10        16.8180    6.4970   11.0640 C.ar      1 CEL        -0.0567
     12 C9         16.1520    6.0970    9.9300 C.ar      1 CEL        -0.0589
     13 C8         15.3810    6.9930    9.2250 C.ar      1 CEL        -0.0448
     14 C11        14.6630    6.5370    7.9810 C.3       1 CEL        -0.0305
     15 C7         15.2560    8.3000    9.6820 C.ar      1 CEL        -0.0589
     16 C6         15.9710    8.7060   10.7780 C.ar      1 CEL        -0.0567
     17 C2         18.3570    9.3030   12.7050 C.2       1 CEL        -0.0161
     18 C1         18.9230    9.2700   13.9750 C.2       1 CEL         0.1187
     19 C4         19.8490   10.2670   14.5820 C.3       1 CEL         0.3841
     20 F3         21.0600   10.2580   14.0890 F         1 CEL        -0.2202
     21 F2         19.9160   10.2130   15.9080 F         1 CEL        -0.2202
     22 F1         19.3800   11.4890   14.3610 F         1 CEL        -0.2202
     23 N1         18.5310    8.2110   14.6570 N.2       1 CEL        -0.1370
     24 N3         15.8130    1.4840   16.0220 N.am      1 CEL        -0.2614
     25 O2         13.8900    2.9120   16.5270 O.2       1 CEL        -0.1510
     26 O1         15.8140    3.0120   17.9850 O.2       1 CEL        -0.1510
     27 H1         14.1132    5.1710   15.4053 H         1 CEL         0.0628
     28 H2         15.1337    7.1069   14.2308 H         1 CEL         0.0616
     29 H3         18.9983    5.3612   14.7411 H         1 CEL         0.0616
     30 H4         17.9745    3.3967   15.9081 H         1 CEL         0.0628
     31 H5         17.3894    5.7758   11.6370 H         1 CEL         0.0611
     32 H6         16.2344    5.0712    9.5894 H         1 CEL         0.0561
     33 H7         14.1005    7.3797    7.5526 H         1 CEL         0.0395
     34 H8         13.9675    5.7239    8.2362 H         1 CEL         0.0395
     35 H9         15.3968    6.1747    7.2460 H         1 CEL         0.0395
     36 H10        14.5964    8.9942    9.1740 H         1 CEL         0.0561
     37 H11        15.9142    9.7396   11.0997 H         1 CEL         0.0611
     38 H12        18.5297   10.0345   11.9170 H         1 CEL         0.0464
     39 H13        15.5286    0.6094   16.4147 H         1 CEL         0.1634
     40 H14        16.4271    1.5017   15.2329 H         1 CEL         0.1634
@<TRIPOS>BOND
     1    1    2 1  
     2    1   24 am 
     3    1   25 2  
     4    1   26 2  
     5    2    3 ar 
     6    2    7 ar 
     7    3    4 ar 
     8    4    5 ar 
     9    5    6 ar 
    10    5    8 1  
    11    6    7 ar 
    12    8    9 1  
    13    8   23 1  
    14    9   10 1  
    15    9   17 2  
    16   10   11 ar 
    17   10   16 ar 
    18   11   12 ar 
    19   12   13 ar 
    20   13   14 1  
    21   13   15 ar 
    22   15   16 ar 
    23   17   18 1  
    24   18   19 1  
    25   18   23 2  
    26   19   20 1  
    27   19   21 1  
    28   19   22 1  
    29    3   27 1  
    30    4   28 1  
    31    6   29 1  
    32    7   30 1  
    33   11   31 1  
    34   12   32 1  
    35   14   33 1  
    36   14   34 1  
    37   14   35 1  
    38   15   36 1  
    39   16   37 1  
    40   17   38 1  
    41   24   39 1  
    42   24   40 1  
@<TRIPOS>SUBSTRUCTURE
     1 CEL         1

