### 
### Created by X-TOOL on Mon Sep 10 21:12:47 2018
### 

@<TRIPOS>MOLECULE
1ork_ligand
   69    72     1     0     0
SMALL
GAST_HUCK


@<TRIPOS>ATOM
      1 C1         20.1080   34.6170   34.3910 C.2       1 ATC         0.0846
      2 O1         19.5650   35.0790   33.3520 O.2       1 ATC        -0.4000
      3 C2         19.5800   33.5690   35.1430 C.2       1 ATC         0.0991
      4 C21        18.3890   32.9210   34.7890 C.2       1 ATC         0.1693
      5 O21        17.9770   31.9310   35.4430 O.2       1 ATC        -0.4149
      6 N21        17.6220   33.2860   33.7120 N.am      1 ATC        -0.3091
      7 C3         20.3030   33.2330   36.2800 C.2       1 ATC         0.1700
      8 O3         20.1970   31.9680   36.8680 O.3       1 ATC        -0.2917
      9 C4         21.1460   34.2540   37.0370 C.3       1 ATC         0.0550
     10 N4         22.2030   33.4360   37.8140 N.4       1 ATC         0.2546
     11 C42        23.0250   34.3640   38.7750 C.3       1 ATC        -0.0405
     12 C43        23.1010   32.5310   36.9330 C.3       1 ATC        -0.0405
     13 C41        21.7550   35.3480   36.1090 C.3       1 ATC         0.0195
     14 C5         21.0970   36.6880   36.3310 C.3       1 ATC        -0.0241
     15 C51        21.7490   37.8560   35.6340 C.3       1 ATC         0.0505
     16 C6         20.9410   39.1710   35.6270 C.3       1 ATC         0.0021
     17 C61        21.6780   40.2670   34.8170 C.ar      1 ATC        -0.0408
     18 C7         21.5120   41.5900   35.2210 C.ar      1 ATC        -0.0781
     19 C8         22.1040   42.6150   34.4800 C.ar      1 ATC        -0.0506
     20 C9         22.8610   42.3360   33.3310 C.ar      1 ATC         0.0963
     21 C10        23.0370   40.9940   32.9340 C.ar      1 ATC         0.1255
     22 O10        23.8360   40.7110   31.7950 O.3       1 ATC        -0.3348
     23 C1A        22.4490   39.9410   33.6780 C.ar      1 ATC         0.0668
     24 C11        22.5210   38.5980   33.2820 C.2       1 ATC         0.2074
     25 O11        23.0760   38.3460   32.2170 O.2       1 ATC        -0.3413
     26 C1B        22.1020   37.5260   34.1290 C.2       1 ATC         0.1111
     27 C12        22.0630   36.1760   33.7350 C.2       1 ATC         0.1147
     28 O12        22.5610   35.7380   32.4420 O.3       1 ATC        -0.3331
     29 C1C        21.5830   35.0130   34.6220 C.3       1 ATC         0.1193
     30 O1C        22.4380   33.9040   34.3300 O.3       1 ATC        -0.4493
     31 N9         23.3350   43.3880   32.5860 N.am      1 ATC        -0.2351
     32 C91        24.5980   43.8150   32.6060 C.2       1 ATC         0.2447
     33 O91        25.3500   43.5610   33.5560 O.2       1 ATC        -0.3812
     34 C92        25.2290   44.6000   31.4630 C.3       1 ATC         0.0624
     35 N92        26.6690   43.9970   31.1130 N.4       1 ATC         0.2480
     36 C93        27.8470   44.3910   32.1230 C.3       1 ATC        -0.0415
     37 C94        26.5830   42.4470   30.7370 C.3       1 ATC        -0.0415
     38 H1         16.7801   32.7873   33.5058 H         1 ATC         0.1786
     39 H2         17.9047   34.0508   33.1330 H         1 ATC         0.1786
     40 H3         19.6551   31.4106   36.3220 H         1 ATC         0.2718
     41 H4         20.5023   34.7701   37.7644 H         1 ATC         0.1165
     42 H5         21.6844   32.8057   38.4055 H         1 ATC         0.2058
     43 H6         23.7699   33.7627   39.3169 H         1 ATC         0.0778
     44 H7         22.3442   34.8407   39.4956 H         1 ATC         0.0778
     45 H8         23.5375   35.1393   38.1865 H         1 ATC         0.0778
     46 H9         22.4686   31.9071   36.2843 H         1 ATC         0.0778
     47 H10        23.7150   31.8848   37.5776 H         1 ATC         0.0778
     48 H11        23.7568   33.1586   36.3117 H         1 ATC         0.0778
     49 H12        22.8282   35.4299   36.3361 H         1 ATC         0.0249
     50 H13        21.1018   36.8929   37.4117 H         1 ATC         0.0313
     51 H14        20.0583   36.6184   35.9756 H         1 ATC         0.0313
     52 H15        22.6890   38.0517   36.1708 H         1 ATC         0.0706
     53 H16        20.8069   39.5171   36.6625 H         1 ATC         0.0464
     54 H17        19.9568   38.9868   35.1715 H         1 ATC         0.0464
     55 H18        20.9276   41.8220   36.1040 H         1 ATC         0.0439
     56 H19        21.9769   43.6437   34.7974 H         1 ATC         0.0488
     57 H20        23.3154   40.2432   31.1527 H         1 ATC         0.2464
     58 H21        22.8420   36.4937   31.9396 H         1 ATC         0.2504
     59 H22        22.3527   33.6728   33.4126 H         1 ATC         0.1840
     60 H23        22.6902   43.8653   31.9890 H         1 ATC         0.2202
     61 H24        25.3380   45.6532   31.7612 H         1 ATC         0.1066
     62 H25        24.5818   44.5352   30.5759 H         1 ATC         0.1066
     63 H26        26.9296   44.4516   30.2519 H         1 ATC         0.2047
     64 H27        28.7865   43.9258   31.7898 H         1 ATC         0.0778
     65 H28        27.5989   44.0333   33.1332 H         1 ATC         0.0778
     66 H29        27.9651   45.4845   32.1399 H         1 ATC         0.0778
     67 H30        25.7457   42.2841   30.0424 H         1 ATC         0.0778
     68 H31        26.4215   41.8564   31.6508 H         1 ATC         0.0778
     69 H32        27.5225   42.1330   30.2587 H         1 ATC         0.0778
@<TRIPOS>BOND
     1    1   29 1  
     2    1    3 1  
     3    1    2 2  
     4    3    7 2  
     5    3    4 1  
     6    4    6 am 
     7    4    5 2  
     8    7    9 1  
     9    7    8 1  
    10    9   13 1  
    11    9   10 1  
    12   10   12 1  
    13   10   11 1  
    14   13   29 1  
    15   13   14 1  
    16   14   15 1  
    17   15   26 1  
    18   15   16 1  
    19   16   17 1  
    20   17   23 ar 
    21   17   18 ar 
    22   18   19 ar 
    23   19   20 ar 
    24   20   31 1  
    25   20   21 ar 
    26   21   23 ar 
    27   21   22 1  
    28   23   24 1  
    29   24   26 1  
    30   24   25 2  
    31   26   27 2  
    32   27   29 1  
    33   27   28 1  
    34   29   30 1  
    35   31   32 am 
    36   32   34 1  
    37   32   33 2  
    38   34   35 1  
    39   35   37 1  
    40   35   36 1  
    41    6   38 1  
    42    6   39 1  
    43    8   40 1  
    44    9   41 1  
    45   10   42 1  
    46   11   43 1  
    47   11   44 1  
    48   11   45 1  
    49   12   46 1  
    50   12   47 1  
    51   12   48 1  
    52   13   49 1  
    53   14   50 1  
    54   14   51 1  
    55   15   52 1  
    56   16   53 1  
    57   16   54 1  
    58   18   55 1  
    59   19   56 1  
    60   22   57 1  
    61   28   58 1  
    62   30   59 1  
    63   31   60 1  
    64   34   61 1  
    65   34   62 1  
    66   35   63 1  
    67   36   64 1  
    68   36   65 1  
    69   36   66 1  
    70   37   67 1  
    71   37   68 1  
    72   37   69 1  
@<TRIPOS>SUBSTRUCTURE
     1 ATC         1

