### 
### Created by X-TOOL on Mon Sep 10 21:12:50 2018
### 

@<TRIPOS>MOLECULE
1orw_ligand
   41    42     1     0     0
SMALL
GAST_HUCK


@<TRIPOS>ATOM
      1 N          -6.4080   19.1790    7.2570 N.4       1 PHI         0.2394
      2 CA         -6.4960   19.8850    5.9740 C.3       1 PHI         0.0748
      3 CB         -5.4630   21.0010    5.8590 C.3       1 PHI         0.0427
      4 CG         -5.6430   22.1880    6.8170 C.ar      1 PHI        -0.0328
      5 CD1        -6.7300   23.0670    6.6950 C.ar      1 PHI        -0.0571
      6 CD2        -4.7340   22.4180    7.8550 C.ar      1 PHI        -0.0571
      7 CE1        -6.9010   24.1400    7.5890 C.ar      1 PHI        -0.0576
      8 CE2        -4.8980   23.4800    8.7430 C.ar      1 PHI        -0.0576
      9 CZ         -5.9700   24.3310    8.6120 C.ar      1 PHI         0.0023
     10 I          -6.1970   25.9180    9.9510 I         1 PHI        -0.0552
     11 C          -6.3330   18.9240    4.7900 C.2       1 PHI         0.2295
     12 O          -5.2530   18.7710    4.2100 O.2       1 PHI        -0.3905
     13 NA         -7.7770   19.1340    1.5890 N.4       1 P2Y         0.2202
     14 C          -7.3360   17.9010    1.9140 C.3       1 P2Y        -0.0116
     15 CA         -7.5430   17.3250    3.3030 C.3       1 P2Y         0.0848
     16 N          -7.4430   18.2840    4.4020 N.am      1 P2Y        -0.2603
     17 CD         -8.7430   18.4160    5.0830 C.3       1 P2Y         0.0347
     18 CG         -9.6820   17.9880    3.9900 C.3       1 P2Y        -0.0302
     19 CB         -8.9340   16.7810    3.4660 C.3       1 P2Y        -0.0229
     20 H1         -6.5190   19.8382    8.0115 H         1 PHI         0.2017
     21 H2         -5.5086   18.7301    7.3326 H         1 PHI         0.2017
     22 H3         -7.1360   18.4837    7.3086 H         1 PHI         0.2017
     23 H4         -7.4962   20.3387    5.9123 H         1 PHI         0.1123
     24 H5         -5.5011   21.3899    4.8308 H         1 PHI         0.0512
     25 H6         -4.4720   20.5629    6.0489 H         1 PHI         0.0512
     26 H7         -7.4500   22.9169    5.8987 H         1 PHI         0.0563
     27 H8         -3.8835   21.7560    7.9714 H         1 PHI         0.0563
     28 H9         -7.7461   24.8109    7.4847 H         1 PHI         0.0627
     29 H10        -4.1785   23.6353    9.5388 H         1 PHI         0.0627
     30 H11        -7.5444   19.3316    0.6283 H         1 PHI         0.1995
     31 H12        -7.3390   19.8162    2.1879 H         1 PHI         0.1995
     32 H13        -8.7771   19.1753    1.7078 H         1 PHI         0.1995
     33 H14        -6.2502   17.9034    1.7378 H         1 PHI         0.0836
     34 H15        -7.8196   17.2039    1.2139 H         1 PHI         0.0836
     35 H16        -6.8019   16.5251    3.4479 H         1 PHI         0.0612
     36 H17        -8.9323   19.4536    5.3953 H         1 PHI         0.0522
     37 H18        -8.8107   17.7518    5.9572 H         1 PHI         0.0522
     38 H19        -9.7949   18.7653    3.2199 H         1 PHI         0.0285
     39 H20       -10.6722   17.7161    4.3845 H         1 PHI         0.0285
     40 H21        -8.9571   15.9515    4.1881 H         1 PHI         0.0290
     41 H22        -9.3461   16.4415    2.5043 H         1 PHI         0.0290
@<TRIPOS>BOND
     1    2    1 1  
     2    2    3 1  
     3   11    2 1  
     4    3    4 1  
     5    4    5 ar 
     6    4    6 ar 
     7    5    7 ar 
     8    6    8 ar 
     9    7    9 ar 
    10    8    9 ar 
    11    9   10 1  
    12   11   12 2  
    13   16   11 am 
    14   14   13 1  
    15   15   14 1  
    16   15   16 1  
    17   15   19 1  
    18   16   17 1  
    19   17   18 1  
    20   18   19 1  
    21    1   20 1  
    22    1   21 1  
    23    1   22 1  
    24    2   23 1  
    25    3   24 1  
    26    3   25 1  
    27    5   26 1  
    28    6   27 1  
    29    7   28 1  
    30    8   29 1  
    31   13   30 1  
    32   13   31 1  
    33   13   32 1  
    34   14   33 1  
    35   14   34 1  
    36   15   35 1  
    37   17   36 1  
    38   17   37 1  
    39   18   38 1  
    40   18   39 1  
    41   19   40 1  
    42   19   41 1  
@<TRIPOS>SUBSTRUCTURE
     1 PHI         1

