### 
### Created by X-TOOL on Mon Sep 10 21:12:50 2018
### 

@<TRIPOS>MOLECULE
1ouk_ligand
   67    71     1     0     0
SMALL
GAST_HUCK


@<TRIPOS>ATOM
      1 C50        48.8660   37.8810   28.9940 C.3       1 084        -0.0316
      2 C49        48.2050   36.9510   29.6760 C.3       1 084         0.0726
      3 N48        47.0720   37.5940   30.4500 N.pl3     1 084        -0.2770
      4 C40        46.0840   37.0210   31.2700 C.ar      1 084         0.1825
      5 N39        45.3000   37.7980   32.0790 N.ar      1 084        -0.2639
      6 C38        44.3600   37.1260   32.8390 C.ar      1 084         0.0060
      7 C37        44.1730   35.7180   32.8290 C.ar      1 084        -0.0229
      8 C12        45.0270   34.9760   31.9610 C.ar      1 084         0.0673
      9 N41        45.9620   35.6630   31.2030 N.ar      1 084        -0.2601
     10 C1         44.9460   33.4660   31.8690 C.2       1 084         0.1096
     11 C5         43.7640   32.6320   31.6230 C.2       1 084         0.0442
     12 N4         44.1470   31.3300   31.6380 N.2       1 084        -0.3092
     13 C3         45.4830   31.3670   31.8750 C.2       1 084         0.1300
     14 C10        46.3470   30.0170   31.9900 C.3       1 084         0.0500
     15 C13        46.7950   29.5360   33.4310 C.3       1 084         0.0076
     16 C14        47.5950   28.1990   33.4220 C.3       1 084        -0.0309
     17 N15        46.8650   27.1120   32.6760 N.4       1 084         0.2273
     18 C16        46.4210   27.5160   31.2870 C.3       1 084        -0.0309
     19 C17        45.5850   28.8310   31.2940 C.3       1 084         0.0076
     20 N2         46.0340   32.6160   32.0190 N.pl3     1 084        -0.2342
     21 C6         47.4420   33.0020   32.2860 C.3       1 084         0.0482
     22 C11        42.3560   33.0670   31.3880 C.ar      1 084         0.0096
     23 C28        41.3310   32.6070   32.2540 C.ar      1 084        -0.0272
     24 C29        39.9600   33.0110   32.0590 C.ar      1 084         0.0461
     25 C30        39.6450   33.9100   30.9370 C.ar      1 084        -0.0335
     26 C31        40.6700   34.3740   30.0620 C.ar      1 084        -0.0337
     27 C32        42.0040   33.9570   30.2870 C.ar      1 084        -0.0292
     28 C44        38.8660   32.5000   33.0080 C.3       1 084         0.3764
     29 F45        38.5890   31.2760   32.6640 F         1 084        -0.2201
     30 F46        37.8140   33.2570   32.8650 F         1 084        -0.2201
     31 F47        39.2280   32.5310   34.2780 F         1 084        -0.2201
     32 C54        49.1270   36.0780   30.6230 C.ar      1 084        -0.0179
     33 C60        49.3520   36.4390   32.0270 C.ar      1 084        -0.0581
     34 C59        50.1880   35.6490   32.8850 C.ar      1 084        -0.0685
     35 C58        50.8300   34.4780   32.3660 C.ar      1 084        -0.0687
     36 C57        50.6370   34.0920   30.9960 C.ar      1 084        -0.0685
     37 C56        49.7940   34.8830   30.1340 C.ar      1 084        -0.0581
     38 H1         49.6873   37.4104   28.4337 H         1 084         0.0274
     39 H2         49.2775   38.6247   29.6922 H         1 084         0.0274
     40 H3         48.1803   38.3774   28.2916 H         1 084         0.0274
     41 H4         47.7600   36.2637   28.9414 H         1 084         0.0721
     42 H5         47.0166   38.6186   30.3608 H         1 084         0.1889
     43 H6         43.7215   37.7149   33.4875 H         1 084         0.0864
     44 H7         43.4239   35.2351   33.4460 H         1 084         0.0630
     45 H8         47.2727   30.2022   31.4254 H         1 084         0.0561
     46 H9         45.8943   29.3980   34.0471 H         1 084         0.0349
     47 H10        47.4283   30.3170   33.8770 H         1 084         0.0349
     48 H11        47.7538   27.8726   34.4604 H         1 084         0.0816
     49 H12        48.5681   28.3701   32.9386 H         1 084         0.0816
     50 H13        46.0486   26.8546   33.2082 H         1 084         0.2013
     51 H14        47.4778   26.3158   32.5946 H         1 084         0.2013
     52 H15        45.8066   26.7082   30.8628 H         1 084         0.0816
     53 H16        47.3123   27.6666   30.6602 H         1 084         0.0816
     54 H17        45.3625   29.1145   30.2547 H         1 084         0.0349
     55 H18        44.6441   28.6494   31.8340 H         1 084         0.0349
     56 H19        47.5179   34.0981   32.3391 H         1 084         0.0579
     57 H20        48.0846   32.6288   31.4750 H         1 084         0.0579
     58 H21        47.7670   32.5653   33.2418 H         1 084         0.0579
     59 H22        41.5813   31.9429   33.0734 H         1 084         0.0834
     60 H23        38.6201   34.2233   30.7740 H         1 084         0.0836
     61 H24        40.4318   35.0358   29.2372 H         1 084         0.0693
     62 H25        42.7853   34.3087   29.6230 H         1 084         0.0843
     63 H26        48.8741   37.3260   32.4269 H         1 084         0.0557
     64 H27        50.3330   35.9366   33.9201 H         1 084         0.0599
     65 H28        51.4645   33.8804   33.0104 H         1 084         0.0559
     66 H29        51.1257   33.2049   30.6096 H         1 084         0.0599
     67 H30        49.6553   34.5807   29.1023 H         1 084         0.0557
@<TRIPOS>BOND
     1    1    2 1  
     2    2    3 1  
     3    2   32 1  
     4    3    4 1  
     5    4    5 ar 
     6    4    9 ar 
     7    5    6 ar 
     8    6    7 ar 
     9    7    8 ar 
    10    8    9 ar 
    11    8   10 1  
    12   10   11 2  
    13   10   20 1  
    14   11   12 1  
    15   11   22 1  
    16   12   13 2  
    17   13   14 1  
    18   13   20 1  
    19   14   15 1  
    20   14   19 1  
    21   15   16 1  
    22   16   17 1  
    23   17   18 1  
    24   18   19 1  
    25   20   21 1  
    26   22   23 ar 
    27   22   27 ar 
    28   23   24 ar 
    29   24   25 ar 
    30   24   28 1  
    31   25   26 ar 
    32   26   27 ar 
    33   28   29 1  
    34   28   30 1  
    35   28   31 1  
    36   32   33 ar 
    37   32   37 ar 
    38   33   34 ar 
    39   34   35 ar 
    40   35   36 ar 
    41   36   37 ar 
    42    1   38 1  
    43    1   39 1  
    44    1   40 1  
    45    2   41 1  
    46    3   42 1  
    47    6   43 1  
    48    7   44 1  
    49   14   45 1  
    50   15   46 1  
    51   15   47 1  
    52   16   48 1  
    53   16   49 1  
    54   17   50 1  
    55   17   51 1  
    56   18   52 1  
    57   18   53 1  
    58   19   54 1  
    59   19   55 1  
    60   21   56 1  
    61   21   57 1  
    62   21   58 1  
    63   23   59 1  
    64   25   60 1  
    65   26   61 1  
    66   27   62 1  
    67   33   63 1  
    68   34   64 1  
    69   35   65 1  
    70   36   66 1  
    71   37   67 1  
@<TRIPOS>SUBSTRUCTURE
     1 084         1

