### 
### Created by X-TOOL on Mon Sep 10 21:12:50 2018
### 

@<TRIPOS>MOLECULE
1ouy_ligand
   48    52     1     0     0
SMALL
GAST_HUCK


@<TRIPOS>ATOM
      1 F1         37.0730   33.2760   32.3530 F         1 094        -0.1901
      2 C1         38.2180   32.6250   32.1570 C.ar      1 094         0.1235
      3 C2         38.5430   31.5490   33.0140 C.ar      1 094        -0.0378
      4 C3         39.7580   30.8530   32.8080 C.ar      1 094        -0.0508
      5 C4         40.6380   31.2380   31.7670 C.ar      1 094         0.0601
      6 S1         42.1610   30.3360   31.5450 S.3       1 094        -0.0345
      7 C5         43.4540   31.5380   31.7920 C.ar      1 094         0.1012
      8 C6         44.8030   31.3040   31.4080 C.ar      1 094         0.0101
      9 C7         45.7430   32.3490   31.6290 C.ar      1 094        -0.0050
     10 C8         45.3470   33.5860   32.2450 C.ar      1 094         0.1340
     11 N1         46.2210   34.6870   32.4770 N.am      1 094        -0.1492
     12 C9         45.7840   35.8880   33.0660 C.2       1 094         0.3020
     13 O1         46.5150   36.8420   33.2720 O.2       1 094        -0.3761
     14 N2         44.4820   35.9910   33.4170 N.2       1 094        -0.2297
     15 C10        43.4750   34.9510   33.2350 C.2       1 094         0.0404
     16 C11        43.9760   33.6940   32.5880 C.ar      1 094         0.0994
     17 N3         43.0750   32.7050   32.3870 N.ar      1 094        -0.2848
     18 C12        47.5780   34.6360   32.1330 C.ar      1 094         0.1296
     19 C13        48.5990   34.1770   33.0440 C.ar      1 094         0.0696
     20 CL1        48.2200   33.6570   34.6480 Cl        1 094        -0.0790
     21 C14        49.9610   34.1470   32.6570 C.ar      1 094        -0.0574
     22 C15        50.3520   34.5530   31.3650 C.ar      1 094        -0.0728
     23 C16        49.3710   35.0070   30.4350 C.ar      1 094        -0.0574
     24 C17        48.0030   35.0420   30.8110 C.ar      1 094         0.0696
     25 CL2        46.8530   35.6080   29.6160 Cl        1 094        -0.0790
     26 C18        45.2450   30.0490   30.7750 C.3       1 094         0.0182
     27 C19        45.2790   28.7450   31.5960 C.2       1 094        -0.0646
     28 C20        45.7370   27.5000   30.7870 C.2       1 094         0.0066
     29 N4         46.6500   27.8440   29.6650 N.pl3     1 094        -0.3028
     30 C21        46.0820   28.8240   28.7090 C.2       1 094         0.0066
     31 C22        45.6110   30.0690   29.4600 C.2       1 094        -0.0646
     32 C23        40.2730   32.3300   30.9200 C.ar      1 094         0.1443
     33 F2         41.0890   32.7100   29.9250 F         1 094        -0.1887
     34 C24        39.0670   33.0370   31.1080 C.ar      1 094        -0.0002
     35 H1         37.8726   31.2616   33.8159 H         1 094         0.0553
     36 H2         40.0169   30.0197   33.4512 H         1 094         0.0549
     37 H3         46.7750   32.2100   31.3278 H         1 094         0.0584
     38 H4         42.4388   35.0777   33.5452 H         1 094         0.1113
     39 H5         50.7112   33.8080   33.3622 H         1 094         0.0593
     40 H6         51.3970   34.5201   31.0788 H         1 094         0.0515
     41 H7         49.6696   35.3248   29.4426 H         1 094         0.0593
     42 H8         46.2841   30.2582   31.0691 H         1 094         0.0627
     43 H9         45.0063   28.7002   32.6494 H         1 094         0.0355
     44 H10        45.4226   26.4831   31.0174 H         1 094         0.0832
     45 H11        47.5911   27.4384   29.5615 H         1 094         0.2019
     46 H12        46.0109   28.6786   27.6321 H         1 094         0.0832
     47 H13        45.5653   31.0146   28.9219 H         1 094         0.0355
     48 H14        38.8010   33.8699   30.4673 H         1 094         0.0573
@<TRIPOS>BOND
     1    2    1 1  
     2    2    3 ar 
     3    2   34 ar 
     4    3    4 ar 
     5    4    5 ar 
     6    5    6 1  
     7    5   32 ar 
     8    6    7 1  
     9    7    8 ar 
    10    7   17 ar 
    11    8    9 ar 
    12    8   26 1  
    13    9   10 ar 
    14   10   11 1  
    15   10   16 ar 
    16   11   12 am 
    17   11   18 1  
    18   12   13 2  
    19   12   14 1  
    20   14   15 2  
    21   15   16 1  
    22   16   17 ar 
    23   18   19 ar 
    24   18   24 ar 
    25   19   20 1  
    26   19   21 ar 
    27   21   22 ar 
    28   22   23 ar 
    29   23   24 ar 
    30   24   25 1  
    31   26   27 1  
    32   26   31 1  
    33   27   28 2  
    34   28   29 1  
    35   29   30 1  
    36   30   31 2  
    37   32   33 1  
    38   32   34 ar 
    39    3   35 1  
    40    4   36 1  
    41    9   37 1  
    42   15   38 1  
    43   21   39 1  
    44   22   40 1  
    45   23   41 1  
    46   26   42 1  
    47   27   43 1  
    48   28   44 1  
    49   29   45 1  
    50   30   46 1  
    51   31   47 1  
    52   34   48 1  
@<TRIPOS>SUBSTRUCTURE
     1 094         1

