### 
### Created by X-TOOL on Mon Sep 10 21:12:50 2018
### 

@<TRIPOS>MOLECULE
1ove_ligand
   51    55     1     0     0
SMALL
GAST_HUCK


@<TRIPOS>ATOM
      1 CL1        25.4610   11.1920   29.3270 Cl        1 358        -0.0811
      2 C1         25.5450   10.6500   30.9290 C.ar      1 358         0.0655
      3 C2         26.8120   10.5510   31.5650 C.ar      1 358        -0.0596
      4 C3         26.8670   10.1040   32.9290 C.ar      1 358        -0.0747
      5 C4         25.6630    9.7640   33.6410 C.ar      1 358        -0.0596
      6 C5         24.4110    9.8780   32.9570 C.ar      1 358         0.0655
      7 CL2        22.9370    9.4910   33.7730 Cl        1 358        -0.0811
      8 C6         24.3230   10.3190   31.5960 C.ar      1 358         0.1184
      9 N1         23.0540   10.4210   30.9550 N.am      1 358        -0.1734
     10 C7         22.5670    9.3050   30.2650 C.2       1 358         0.2305
     11 O1         23.1460    8.2470   30.1610 O.2       1 358        -0.3742
     12 C8         21.1570    9.4630   29.5990 C.3       1 358         0.0555
     13 C9         20.1580   10.2560   30.5120 C.3       1 358        -0.0066
     14 C10        20.9360   11.6600   30.8950 C.ar      1 358        -0.0130
     15 C11        22.3300   11.6460   31.0720 C.ar      1 358         0.0883
     16 C12        22.9690   12.9410   31.4040 C.ar      1 358        -0.0397
     17 C13        22.2470   14.1610   31.5460 C.ar      1 358        -0.0520
     18 C14        20.8030   14.0820   31.3600 C.ar      1 358        -0.0731
     19 C15        20.1060   12.8540   31.0330 C.ar      1 358        -0.0354
     20 C16        18.6070   12.9010   30.8860 C.ar      1 358         0.0041
     21 C17        17.9290   13.5750   29.8040 C.ar      1 358        -0.0590
     22 C18        16.4870   13.5510   29.7500 C.ar      1 358        -0.0322
     23 C19        15.7560   12.8570   30.7710 C.ar      1 358         0.1305
     24 F1         14.4260   12.8280   30.7190 F         1 358        -0.1845
     25 C20        16.4020   12.1950   31.8430 C.ar      1 358         0.0055
     26 C21        17.7970   12.2180   31.8960 C.ar      1 358         0.1377
     27 F2         18.3240   11.5570   32.9500 F         1 358        -0.1834
     28 C22        22.9910   15.5020   31.9050 C.3       1 358         0.0045
     29 C23        22.1620   16.8360   32.2690 C.2       1 358        -0.0687
     30 C24        22.4490   18.1460   31.4380 C.2       1 358         0.0046
     31 N2         23.7960   18.1860   30.8620 N.pl3     1 358        -0.3044
     32 C25        24.0150   17.0570   29.9620 C.2       1 358         0.0046
     33 C26        24.0860   15.7500   30.7630 C.2       1 358        -0.0687
     34 H1         27.7197   10.8079   31.0309 H         1 358         0.0588
     35 H2         27.8259   10.0218   33.4278 H         1 358         0.0499
     36 H3         25.7037    9.4294   34.6713 H         1 358         0.0588
     37 H4         20.7424    8.4628   29.4050 H         1 358         0.0531
     38 H5         21.2727   10.0029   28.6476 H         1 358         0.0531
     39 H6         19.9294    9.6819   31.4220 H         1 358         0.0416
     40 H7         19.2255   10.4685   29.9686 H         1 358         0.0416
     41 H8         24.0434   12.9612   31.5465 H         1 358         0.0431
     42 H9         20.2203   14.9891   31.4721 H         1 358         0.0416
     43 H10        18.4971   14.0936   29.0402 H         1 358         0.0595
     44 H11        15.9612   14.0526   28.9456 H         1 358         0.0570
     45 H12        15.8266   11.6820   32.6052 H         1 358         0.0589
     46 H13        23.5464   15.2780   32.8277 H         1 358         0.0583
     47 H14        21.4225   16.8329   33.0684 H         1 358         0.0345
     48 H15        21.7180   18.9423   31.3054 H         1 358         0.0822
     49 H16        24.4957   18.9141   31.0651 H         1 358         0.2007
     50 H17        24.1136   17.1317   28.8800 H         1 358         0.0822
     51 H18        24.8600   15.0112   30.5604 H         1 358         0.0345
@<TRIPOS>BOND
     1    2    1 1  
     2    2    3 ar 
     3    2    8 ar 
     4    3    4 ar 
     5    4    5 ar 
     6    5    6 ar 
     7    6    7 1  
     8    6    8 ar 
     9    8    9 1  
    10    9   10 am 
    11    9   15 1  
    12   10   11 2  
    13   10   12 1  
    14   12   13 1  
    15   13   14 1  
    16   14   15 ar 
    17   14   19 ar 
    18   15   16 ar 
    19   16   17 ar 
    20   17   18 ar 
    21   17   28 1  
    22   18   19 ar 
    23   19   20 1  
    24   20   21 ar 
    25   20   26 ar 
    26   21   22 ar 
    27   22   23 ar 
    28   23   24 1  
    29   23   25 ar 
    30   25   26 ar 
    31   26   27 1  
    32   28   29 1  
    33   28   33 1  
    34   29   30 2  
    35   30   31 1  
    36   31   32 1  
    37   32   33 2  
    38    3   34 1  
    39    4   35 1  
    40    5   36 1  
    41   12   37 1  
    42   12   38 1  
    43   13   39 1  
    44   13   40 1  
    45   16   41 1  
    46   18   42 1  
    47   21   43 1  
    48   22   44 1  
    49   25   45 1  
    50   28   46 1  
    51   29   47 1  
    52   30   48 1  
    53   31   49 1  
    54   32   50 1  
    55   33   51 1  
@<TRIPOS>SUBSTRUCTURE
     1 358         1

