### 
### Created by X-TOOL on Mon Sep 10 21:12:51 2018
### 

@<TRIPOS>MOLECULE
1owd_ligand
   54    57     1     0     0
SMALL
GAST_HUCK


@<TRIPOS>ATOM
      1 C47        29.9610   10.5100   33.5110 C.3       1 497        -0.0632
      2 C45        28.5190   10.8440   33.1590 C.3       1 497        -0.0396
      3 C39        28.3610   10.9620   31.6530 C.3       1 497         0.0271
      4 C38        28.8240    9.8200   30.7370 C.3       1 497        -0.0214
      5 N37        29.2180   10.4030   29.4480 N.4       1 497         0.2377
      6 C36        28.2460   11.2590   28.7480 C.3       1 497        -0.0085
      7 C26        27.3310   12.0620   29.6560 C.ar      1 497        -0.0108
      8 C27        27.2540   11.7970   31.0550 C.ar      1 497        -0.0407
      9 C28        26.1890   12.3400   31.8040 C.ar      1 497        -0.0455
     10 C22        25.3520   13.3140   31.2130 C.ar      1 497         0.0526
     11 N21        24.2760   13.8910   31.8340 N.am      1 497        -0.2385
     12 C20        24.3750   14.6380   32.9380 C.2       1 497         0.2303
     13 O23        25.3290   14.4670   33.6600 O.2       1 497        -0.3742
     14 C11        23.3220   15.6590   33.2280 C.ar      1 497         0.0561
     15 C12        23.6510   16.7190   34.1180 C.ar      1 497        -0.0428
     16 C13        22.7050   17.6950   34.4790 C.ar      1 497        -0.0509
     17 C4         21.4010   17.6640   33.9270 C.ar      1 497        -0.0152
     18 C5         20.4950   18.7210   34.1490 C.ar      1 497        -0.0471
     19 C6         19.2050   18.7230   33.5720 C.ar      1 497         0.0279
     20 C1         18.8770   17.7140   32.6360 C.ar      1 497        -0.0544
     21 C2         19.7930   16.6790   32.3730 C.ar      1 497        -0.0518
     22 C3         21.0590   16.6360   33.0030 C.ar      1 497        -0.0116
     23 C10        22.0140   15.6320   32.6690 C.ar      1 497        -0.0325
     24 C17        18.2110   19.7350   33.9890 C.cat     1 497         0.2364
     25 N18        18.5880   20.9290   34.4080 N.pl3     1 497        -0.2720
     26 N19        16.9240   19.4960   33.9780 N.pl3     1 497        -0.2720
     27 C24        25.6060   13.7230   29.8970 C.ar      1 497        -0.0541
     28 C25        26.5440   13.0830   29.0890 C.ar      1 497        -0.0745
     29 H1         30.0621   10.4274   34.6032 H         1 497         0.0231
     30 H2         30.6228   11.3068   33.1408 H         1 497         0.0231
     31 H3         30.2406    9.5543   33.0436 H         1 497         0.0231
     32 H4         28.2419   11.7989   33.6294 H         1 497         0.0287
     33 H5         27.8597   10.0465   33.5322 H         1 497         0.0287
     34 H6         29.1965   11.6569   31.4825 H         1 497         0.0497
     35 H7         28.0017    9.1048   30.5874 H         1 497         0.0839
     36 H8         29.6822    9.3024   31.1904 H         1 497         0.0839
     37 H9         29.4433    9.6390   28.8303 H         1 497         0.2026
     38 H10        30.0434   10.9584   29.6105 H         1 497         0.2026
     39 H11        27.6188   10.6157   28.1134 H         1 497         0.0935
     40 H12        28.8050   11.9646   28.1158 H         1 497         0.0935
     41 H13        26.0141   12.0136   32.8228 H         1 497         0.0424
     42 H14        23.3682   13.7457   31.4405 H         1 497         0.2229
     43 H15        24.6533   16.7757   34.5270 H         1 497         0.0652
     44 H16        22.9749   18.4742   35.1826 H         1 497         0.0627
     45 H17        20.7950   19.5519   34.7772 H         1 497         0.0626
     46 H18        17.9225   17.7383   32.1229 H         1 497         0.0621
     47 H19        19.5228   15.8973   31.6723 H         1 497         0.0636
     48 H20        21.7408   14.8395   31.9818 H         1 497         0.0694
     49 H21        17.8811   21.6212   34.6945 H         1 497         0.3181
     50 H22        19.5890   21.1683   34.4484 H         1 497         0.3181
     51 H23        16.5728   18.5812   33.6607 H         1 497         0.3181
     52 H24        16.2626   20.2228   34.2866 H         1 497         0.3181
     53 H25        25.0547   14.5650   29.4942 H         1 497         0.0431
     54 H26        26.6649   13.3643   28.0491 H         1 497         0.0504
@<TRIPOS>BOND
     1    1    2 1  
     2    2    3 1  
     3    3    4 1  
     4    3    8 1  
     5    4    5 1  
     6    5    6 1  
     7    6    7 1  
     8    7    8 ar 
     9    7   28 ar 
    10    8    9 ar 
    11    9   10 ar 
    12   10   11 1  
    13   10   27 ar 
    14   11   12 am 
    15   12   13 2  
    16   12   14 1  
    17   14   15 ar 
    18   14   23 ar 
    19   15   16 ar 
    20   16   17 ar 
    21   17   18 ar 
    22   17   22 ar 
    23   18   19 ar 
    24   19   20 ar 
    25   19   24 1  
    26   20   21 ar 
    27   21   22 ar 
    28   22   23 ar 
    29   24   25 ar 
    30   24   26 ar 
    31   27   28 ar 
    32    1   29 1  
    33    1   30 1  
    34    1   31 1  
    35    2   32 1  
    36    2   33 1  
    37    3   34 1  
    38    4   35 1  
    39    4   36 1  
    40    5   37 1  
    41    5   38 1  
    42    6   39 1  
    43    6   40 1  
    44    9   41 1  
    45   11   42 1  
    46   15   43 1  
    47   16   44 1  
    48   18   45 1  
    49   20   46 1  
    50   21   47 1  
    51   23   48 1  
    52   25   49 1  
    53   25   50 1  
    54   26   51 1  
    55   26   52 1  
    56   27   53 1  
    57   28   54 1  
@<TRIPOS>SUBSTRUCTURE
     1 497         1

