### 
### Created by X-TOOL on Mon Sep 10 21:12:50 2018
### 

@<TRIPOS>MOLECULE
1owh_ligand
   44    46     1     0     0
SMALL
GAST_HUCK


@<TRIPOS>ATOM
      1 N18        17.0260   19.5340   33.8170 N.pl3     1 239        -0.2720
      2 C17        18.3420   19.7790   34.0210 C.cat     1 239         0.2364
      3 N19        18.8990   20.9440   34.4160 N.pl3     1 239        -0.2720
      4 C12        19.2400   18.6840   33.6740 C.ar      1 239         0.0279
      5 C13        20.5630   18.5360   34.1950 C.ar      1 239        -0.0471
      6 C3         21.4750   17.5390   33.8390 C.ar      1 239        -0.0152
      7 C4         22.6920   17.4620   34.5200 C.ar      1 239        -0.0509
      8 C5         23.5100   16.3800   34.1390 C.ar      1 239        -0.0428
      9 C6         23.3010   15.4310   33.1170 C.ar      1 239         0.0560
     10 C1         22.0280   15.5900   32.5470 C.ar      1 239        -0.0325
     11 C2         21.0740   16.5880   32.8630 C.ar      1 239        -0.0116
     12 C10        19.8070   16.5780   32.2680 C.ar      1 239        -0.0518
     13 C11        18.9440   17.6150   32.6920 C.ar      1 239        -0.0544
     14 C23        24.3060   14.4770   32.6780 C.2       1 239         0.2303
     15 O35        25.1000   14.1030   33.5500 O.2       1 239        -0.3742
     16 N24        24.4480   14.1640   31.3640 N.am      1 239        -0.2370
     17 C25        25.3860   13.3270   30.7300 C.ar      1 239         0.0594
     18 C30        25.9770   12.2390   31.4150 C.ar      1 239        -0.0471
     19 C29        26.9420   11.4730   30.7230 C.ar      1 239        -0.0682
     20 C28        27.1990   11.7810   29.3630 C.ar      1 239        -0.0133
     21 C27        26.5550   12.8220   28.6630 C.ar      1 239        -0.0682
     22 C26        25.7090   13.6600   29.4110 C.ar      1 239        -0.0471
     23 C37        28.2610   10.9740   28.6540 C.3       1 239        -0.0082
     24 N38        29.6080   11.4260   28.9550 N.4       1 239         0.2289
     25 H1         16.7171   18.5993   33.5140 H         1 239         0.3181
     26 H2         16.3339   20.2823   33.9648 H         1 239         0.3181
     27 H3         19.9195   21.0115   34.5386 H         1 239         0.3181
     28 H4         18.3034   21.7651   34.5947 H         1 239         0.3181
     29 H5         20.8876   19.2618   34.9318 H         1 239         0.0626
     30 H6         22.9837   18.1772   35.2805 H         1 239         0.0627
     31 H7         24.4243   16.2608   34.7089 H         1 239         0.0652
     32 H8         21.7453   14.8733   31.7845 H         1 239         0.0694
     33 H9         19.5103   15.8330   31.5386 H         1 239         0.0636
     34 H10        17.9549   17.6293   32.2487 H         1 239         0.0621
     35 H11        23.7840   14.5944   30.7526 H         1 239         0.2230
     36 H12        25.6991   12.0013   32.4354 H         1 239         0.0488
     37 H13        27.4730   10.6692   31.2200 H         1 239         0.0522
     38 H14        26.7049   12.9692   27.5995 H         1 239         0.0522
     39 H15        25.3077   14.5631   28.9655 H         1 239         0.0488
     40 H16        28.0977   11.0548   27.5692 H         1 239         0.0950
     41 H17        28.1666    9.9221   28.9617 H         1 239         0.0950
     42 H18        30.2731   10.8548   28.4575 H         1 239         0.2005
     43 H19        29.7745   11.3494   29.9462 H         1 239         0.2005
     44 H20        29.7114   12.3874   28.6702 H         1 239         0.2005
@<TRIPOS>BOND
     1    1    2 ar 
     2    2    3 ar 
     3    2    4 1  
     4    4    5 ar 
     5    4   13 ar 
     6    5    6 ar 
     7    6    7 ar 
     8    6   11 ar 
     9    7    8 ar 
    10    8    9 ar 
    11    9   10 ar 
    12    9   14 1  
    13   10   11 ar 
    14   11   12 ar 
    15   12   13 ar 
    16   14   15 2  
    17   14   16 am 
    18   16   17 1  
    19   17   18 ar 
    20   17   22 ar 
    21   18   19 ar 
    22   19   20 ar 
    23   20   21 ar 
    24   20   23 1  
    25   21   22 ar 
    26   23   24 1  
    27    1   25 1  
    28    1   26 1  
    29    3   27 1  
    30    3   28 1  
    31    5   29 1  
    32    7   30 1  
    33    8   31 1  
    34   10   32 1  
    35   12   33 1  
    36   13   34 1  
    37   16   35 1  
    38   18   36 1  
    39   19   37 1  
    40   21   38 1  
    41   22   39 1  
    42   23   40 1  
    43   23   41 1  
    44   24   42 1  
    45   24   43 1  
    46   24   44 1  
@<TRIPOS>SUBSTRUCTURE
     1 239         1

