### 
### Created by X-TOOL on Mon Sep 10 21:12:51 2018
### 

@<TRIPOS>MOLECULE
1owi_ligand
   52    55     1     0     0
SMALL
GAST_HUCK


@<TRIPOS>ATOM
      1 N18        17.1460   19.5630   34.0330 N.pl3     1 426        -0.2720
      2 C17        18.4370   19.6740   34.0900 C.cat     1 426         0.2364
      3 N19        18.9670   20.8550   34.4390 N.pl3     1 426        -0.2720
      4 C4         19.2930   18.5410   33.7320 C.ar      1 426         0.0279
      5 C5         20.6190   18.5020   34.2910 C.ar      1 426        -0.0471
      6 C6         21.5790   17.5160   33.9250 C.ar      1 426        -0.0152
      7 C10        22.8780   17.5500   34.5090 C.ar      1 426        -0.0509
      8 C11        23.8840   16.6040   34.1530 C.ar      1 426        -0.0427
      9 C12        23.6000   15.5920   33.1820 C.ar      1 426         0.0565
     10 C13        22.2620   15.5510   32.5840 C.ar      1 426        -0.0324
     11 C1         21.2320   16.4980   32.9410 C.ar      1 426        -0.0116
     12 C2         19.8860   16.5220   32.3900 C.ar      1 426        -0.0517
     13 C3         18.9060   17.5200   32.7710 C.ar      1 426        -0.0544
     14 C20        24.7200   14.6820   32.8550 C.2       1 426         0.2320
     15 O23        25.6970   14.5930   33.5810 O.2       1 426        -0.3732
     16 N21        24.6130   13.9590   31.6980 N.am      1 426        -0.2356
     17 C22        25.5790   13.1240   31.1960 C.ar      1 426         0.0568
     18 C28        25.9280   11.9100   31.8250 C.ar      1 426        -0.0522
     19 C27        26.9330   11.0850   31.2780 C.ar      1 426        -0.0837
     20 C26        27.5790   11.4640   30.0960 C.ar      1 426        -0.0483
     21 C25        27.2350   12.6810   29.4580 C.ar      1 426         0.0780
     22 O33        27.8420   13.2250   28.3150 O.3       1 426        -0.3187
     23 C34        28.5880   12.3390   27.4780 C.3       1 426         0.0809
     24 C38        27.8360   12.1370   26.1280 C.3       1 426        -0.0222
     25 C37        28.6730   12.8340   25.0470 C.3       1 426        -0.0503
     26 C36        29.9700   13.3800   25.7140 C.3       1 426        -0.0503
     27 C35        29.9990   12.9220   27.1930 C.3       1 426        -0.0222
     28 C24        26.2310   13.4860   30.0120 C.ar      1 426        -0.0140
     29 H1         16.7176   18.6649   33.7671 H         1 426         0.3181
     30 H2         16.5492   20.3730   34.2536 H         1 426         0.3181
     31 H3         19.9898   20.9654   34.4906 H         1 426         0.3181
     32 H4         18.3514   21.6519   34.6555 H         1 426         0.3181
     33 H5         20.8981   19.2539   35.0203 H         1 426         0.0626
     34 H6         23.1075   18.3144   35.2426 H         1 426         0.0627
     35 H7         24.8624   16.6515   34.6173 H         1 426         0.0652
     36 H8         22.0387   14.7850   31.8502 H         1 426         0.0694
     37 H9         19.6050   15.7648   31.6670 H         1 426         0.0636
     38 H10        17.9075   17.5057   32.3493 H         1 426         0.0621
     39 H11        23.7637   14.0462   31.1773 H         1 426         0.2250
     40 H12        25.4205   11.6094   32.7345 H         1 426         0.0414
     41 H13        27.2043   10.1592   31.7724 H         1 426         0.0552
     42 H14        28.3435   10.8256   29.6681 H         1 426         0.0418
     43 H15        28.6936   11.3686   27.9851 H         1 426         0.0650
     44 H16        26.8342   12.5882   26.1811 H         1 426         0.0294
     45 H17        27.7435   11.0643   25.9026 H         1 426         0.0294
     46 H18        28.1001   13.6655   24.6107 H         1 426         0.0266
     47 H19        28.9348   12.1147   24.2570 H         1 426         0.0266
     48 H20        29.9760   14.4790   25.6668 H         1 426         0.0266
     49 H21        30.8514   12.9855   25.1872 H         1 426         0.0266
     50 H22        30.7699   12.1514   27.3411 H         1 426         0.0294
     51 H23        30.2024   13.7763   27.8554 H         1 426         0.0294
     52 H24        25.9537   14.4077   29.5134 H         1 426         0.0420
@<TRIPOS>BOND
     1    1    2 ar 
     2    2    3 ar 
     3    2    4 1  
     4    4    5 ar 
     5    4   13 ar 
     6    5    6 ar 
     7    6    7 ar 
     8    6   11 ar 
     9    7    8 ar 
    10    8    9 ar 
    11    9   10 ar 
    12    9   14 1  
    13   10   11 ar 
    14   11   12 ar 
    15   12   13 ar 
    16   14   15 2  
    17   14   16 am 
    18   16   17 1  
    19   17   18 ar 
    20   17   28 ar 
    21   18   19 ar 
    22   19   20 ar 
    23   20   21 ar 
    24   21   22 1  
    25   21   28 ar 
    26   22   23 1  
    27   23   24 1  
    28   23   27 1  
    29   24   25 1  
    30   25   26 1  
    31   26   27 1  
    32    1   29 1  
    33    1   30 1  
    34    3   31 1  
    35    3   32 1  
    36    5   33 1  
    37    7   34 1  
    38    8   35 1  
    39   10   36 1  
    40   12   37 1  
    41   13   38 1  
    42   16   39 1  
    43   18   40 1  
    44   19   41 1  
    45   20   42 1  
    46   23   43 1  
    47   24   44 1  
    48   24   45 1  
    49   25   46 1  
    50   25   47 1  
    51   26   48 1  
    52   26   49 1  
    53   27   50 1  
    54   27   51 1  
    55   28   52 1  
@<TRIPOS>SUBSTRUCTURE
     1 426         1

