### 
### Created by X-TOOL on Mon Sep 10 21:12:51 2018
### 

@<TRIPOS>MOLECULE
1owj_ligand
   54    57     1     0     0
SMALL
GAST_HUCK


@<TRIPOS>ATOM
      1 N18        16.9940   19.3640   33.9700 N.pl3     1 155        -0.2720
      2 C17        18.3390   19.5220   33.8470 C.cat     1 155         0.2364
      3 N19        18.8700   20.7450   34.0460 N.pl3     1 155        -0.2720
      4 C12        19.2140   18.3740   33.5180 C.ar      1 155         0.0279
      5 C13        20.5230   18.4320   34.0230 C.ar      1 155        -0.0471
      6 C4         21.4790   17.4170   33.7980 C.ar      1 155        -0.0152
      7 C5         22.8110   17.6010   34.2710 C.ar      1 155        -0.0509
      8 C6         23.8200   16.6450   33.9990 C.ar      1 155        -0.0428
      9 C1         23.5200   15.4740   33.2540 C.ar      1 155         0.0560
     10 C2         22.1640   15.2740   32.7570 C.ar      1 155        -0.0325
     11 C3         21.1230   16.2440   33.0190 C.ar      1 155        -0.0116
     12 C10        19.7810   16.1780   32.5020 C.ar      1 155        -0.0518
     13 C11        18.8270   17.2240   32.7360 C.ar      1 155        -0.0544
     14 C20        24.6030   14.5240   33.1280 C.2       1 155         0.2303
     15 O21        25.6470   14.5040   33.7740 O.2       1 155        -0.3743
     16 N22        24.3870   13.6500   32.2380 N.am      1 155        -0.2356
     17 C23        25.4120   13.3340   31.4890 C.ar      1 155         0.0677
     18 C28        26.2970   12.3250   31.8630 C.ar      1 155        -0.0270
     19 C27        27.1750   11.8500   30.8780 C.ar      1 155         0.0080
     20 C26        27.2290   12.4480   29.5920 C.ar      1 155        -0.0342
     21 C25        26.4010   13.5300   29.2700 C.ar      1 155        -0.0630
     22 C24        25.4790   13.9600   30.2360 C.ar      1 155        -0.0394
     23 C32        28.1780   11.8880   28.5710 C.3       1 155        -0.0126
     24 C33        28.3580   10.3340   28.6940 C.3       1 155         0.0022
     25 N34        28.5270    9.9480   30.0860 N.2       1 155        -0.3561
     26 C35        27.9770   10.6620   31.1000 C.2       1 155         0.0249
     27 C40        28.1660   10.1520   32.4700 C.3       1 155         0.0122
     28 C41        29.5320   10.6490   32.9620 C.3       1 155        -0.0464
     29 C45        27.8690    8.6460   32.3810 C.3       1 155        -0.0464
     30 H1         16.5686   18.4377   33.8220 H         1 155         0.3181
     31 H2         16.4006   20.1706   34.2112 H         1 155         0.3181
     32 H3         19.8865   20.8857   33.9576 H         1 155         0.3181
     33 H4         18.2592   21.5387   34.2865 H         1 155         0.3181
     34 H5         20.8128   19.2946   34.6120 H         1 155         0.0626
     35 H6         23.0554   18.4859   34.8475 H         1 155         0.0627
     36 H7         24.8282   16.8084   34.3621 H         1 155         0.0652
     37 H8         21.9322   14.3847   32.1822 H         1 155         0.0694
     38 H9         19.4828   15.3138   31.9195 H         1 155         0.0636
     39 H10        17.8248   17.1513   32.3293 H         1 155         0.0621
     40 H11        23.4890   13.2275   32.1152 H         1 155         0.2229
     41 H12        26.3065   11.9250   32.8704 H         1 155         0.0552
     42 H13        26.4701   14.0197   28.3054 H         1 155         0.0542
     43 H14        24.8118   14.7843   30.0116 H         1 155         0.0553
     44 H15        29.1594   12.3668   28.7038 H         1 155         0.0429
     45 H16        27.7904   12.1183   27.5677 H         1 155         0.0429
     46 H17        29.2464   10.0264   28.1230 H         1 155         0.0379
     47 H18        27.4679    9.8333   28.2853 H         1 155         0.0379
     48 H19        27.4110   10.5915   33.1384 H         1 155         0.0546
     49 H20        29.7074   10.2859   33.9854 H         1 155         0.0263
     50 H21        29.5460   11.7489   32.9557 H         1 155         0.0263
     51 H22        30.3217   10.2684   32.2976 H         1 155         0.0263
     52 H23        26.8447    8.4957   32.0092 H         1 155         0.0263
     53 H24        27.9670    8.1933   33.3787 H         1 155         0.0263
     54 H25        28.5827    8.1716   31.6914 H         1 155         0.0263
@<TRIPOS>BOND
     1    1    2 ar 
     2    2    3 ar 
     3    2    4 1  
     4    4    5 ar 
     5    4   13 ar 
     6    5    6 ar 
     7    6    7 ar 
     8    6   11 ar 
     9    7    8 ar 
    10    8    9 ar 
    11    9   10 ar 
    12    9   14 1  
    13   10   11 ar 
    14   11   12 ar 
    15   12   13 ar 
    16   14   15 2  
    17   14   16 am 
    18   16   17 1  
    19   17   18 ar 
    20   17   22 ar 
    21   18   19 ar 
    22   19   20 ar 
    23   19   26 1  
    24   20   21 ar 
    25   20   23 1  
    26   21   22 ar 
    27   23   24 1  
    28   24   25 1  
    29   25   26 2  
    30   26   27 1  
    31   27   28 1  
    32   27   29 1  
    33    1   30 1  
    34    1   31 1  
    35    3   32 1  
    36    3   33 1  
    37    5   34 1  
    38    7   35 1  
    39    8   36 1  
    40   10   37 1  
    41   12   38 1  
    42   13   39 1  
    43   16   40 1  
    44   18   41 1  
    45   21   42 1  
    46   22   43 1  
    47   23   44 1  
    48   23   45 1  
    49   24   46 1  
    50   24   47 1  
    51   27   48 1  
    52   28   49 1  
    53   28   50 1  
    54   28   51 1  
    55   29   52 1  
    56   29   53 1  
    57   29   54 1  
@<TRIPOS>SUBSTRUCTURE
     1 155         1

