### 
### Created by X-TOOL on Mon Sep 10 21:12:50 2018
### 

@<TRIPOS>MOLECULE
1owk_ligand
   57    60     1     0     0
SMALL
GAST_HUCK


@<TRIPOS>ATOM
      1 N18        16.8270   19.5210   33.8950 N.pl3     1 303        -0.2720
      2 C17        18.1490   19.6460   34.0260 C.cat     1 303         0.2364
      3 N19        18.6210   20.6980   34.6860 N.pl3     1 303        -0.2720
      4 C4         19.0720   18.6300   33.4680 C.ar      1 303         0.0279
      5 C5         20.3550   18.4680   34.0840 C.ar      1 303        -0.0471
      6 C6         21.3000   17.4730   33.6990 C.ar      1 303        -0.0152
      7 C10        22.5670   17.3690   34.3590 C.ar      1 303        -0.0509
      8 C11        23.5250   16.3790   33.9880 C.ar      1 303        -0.0428
      9 C12        23.2420   15.4560   32.9260 C.ar      1 303         0.0561
     10 C13        21.9590   15.5450   32.2480 C.ar      1 303        -0.0325
     11 C1         20.9680   16.5530   32.6240 C.ar      1 303        -0.0116
     12 C2         19.6650   16.7340   31.9940 C.ar      1 303        -0.0518
     13 C3         18.7250   17.7480   32.3870 C.ar      1 303        -0.0544
     14 C20        24.3510   14.5100   32.6360 C.2       1 303         0.2303
     15 O21        25.1630   14.2110   33.5140 O.2       1 303        -0.3742
     16 N22        24.4400   14.0100   31.3670 N.am      1 303        -0.2385
     17 C23        25.5050   13.3080   30.8260 C.ar      1 303         0.0527
     18 C28        26.3210   12.4060   31.5490 C.ar      1 303        -0.0408
     19 C27        27.3380   11.6730   30.9030 C.ar      1 303        -0.0060
     20 C26        27.4820   11.7860   29.4900 C.ar      1 303        -0.0451
     21 C25        26.6960   12.7020   28.7690 C.ar      1 303        -0.0791
     22 C24        25.7510   13.4800   29.4470 C.ar      1 303        -0.0542
     23 C32        28.4830   10.9230   28.7370 C.3       1 303         0.0122
     24 C33        28.9420    9.7200   29.5700 C.3       1 303        -0.0255
     25 N34        29.4040   10.2470   30.8550 N.4       1 303         0.2414
     26 C35        28.3050   10.7780   31.6790 C.3       1 303         0.0081
     27 C40        28.9100   11.4320   32.9320 C.3       1 303         0.0051
     28 C42        29.9000   12.5830   32.6320 C.3       1 303        -0.0558
     29 C46        29.4260   10.4000   33.9300 C.3       1 303        -0.0558
     30 H1         16.4336   18.7152   33.3882 H         1 303         0.3181
     31 H2         16.1999   20.2303   34.3007 H         1 303         0.3181
     32 H3         19.6372   20.8196   34.8022 H         1 303         0.3181
     33 H4         17.9707   21.3920   35.0815 H         1 303         0.3181
     34 H5         20.6228   19.1415   34.8901 H         1 303         0.0626
     35 H6         22.8038   18.0596   35.1602 H         1 303         0.0627
     36 H7         24.4726   16.3236   34.5115 H         1 303         0.0652
     37 H8         21.7322   14.8502   31.4475 H         1 303         0.0694
     38 H9         19.3903   16.0671   31.1848 H         1 303         0.0636
     39 H10        17.7729   17.8458   31.8781 H         1 303         0.0621
     40 H11        23.6555   14.1671   30.7671 H         1 303         0.2229
     41 H12        26.1623   12.2767   32.6135 H         1 303         0.0425
     42 H13        26.8210   12.8047   27.6971 H         1 303         0.0502
     43 H14        25.1947   14.2326   28.9001 H         1 303         0.0431
     44 H15        29.3608   11.5356   28.4835 H         1 303         0.0436
     45 H16        28.0122   10.5566   27.8128 H         1 303         0.0436
     46 H17        29.7629    9.1962   29.0584 H         1 303         0.0833
     47 H18        28.1038    9.0249   29.7252 H         1 303         0.0833
     48 H19        30.0641   10.9887   30.6810 H         1 303         0.2031
     49 H20        29.8588    9.5048   31.3633 H         1 303         0.2031
     50 H21        27.7118    9.9173   32.0214 H         1 303         0.1001
     51 H22        28.0630   11.9187   33.4376 H         1 303         0.0371
     52 H23        30.2837   12.9925   33.5781 H         1 303         0.0236
     53 H24        29.3819   13.3759   32.0726 H         1 303         0.0236
     54 H25        30.7382   12.1988   32.0322 H         1 303         0.0236
     55 H26        28.6620    9.6235   34.0825 H         1 303         0.0236
     56 H27        29.6434   10.8937   34.8886 H         1 303         0.0236
     57 H28        30.3446    9.9386   33.5385 H         1 303         0.0236
@<TRIPOS>BOND
     1    1    2 ar 
     2    2    3 ar 
     3    2    4 1  
     4    4    5 ar 
     5    4   13 ar 
     6    5    6 ar 
     7    6    7 ar 
     8    6   11 ar 
     9    7    8 ar 
    10    8    9 ar 
    11    9   10 ar 
    12    9   14 1  
    13   10   11 ar 
    14   11   12 ar 
    15   12   13 ar 
    16   14   15 2  
    17   14   16 am 
    18   16   17 1  
    19   17   18 ar 
    20   17   22 ar 
    21   18   19 ar 
    22   19   20 ar 
    23   19   26 1  
    24   20   21 ar 
    25   20   23 1  
    26   21   22 ar 
    27   23   24 1  
    28   24   25 1  
    29   25   26 1  
    30   26   27 1  
    31   27   28 1  
    32   27   29 1  
    33    1   30 1  
    34    1   31 1  
    35    3   32 1  
    36    3   33 1  
    37    5   34 1  
    38    7   35 1  
    39    8   36 1  
    40   10   37 1  
    41   12   38 1  
    42   13   39 1  
    43   16   40 1  
    44   18   41 1  
    45   21   42 1  
    46   22   43 1  
    47   23   44 1  
    48   23   45 1  
    49   24   46 1  
    50   24   47 1  
    51   25   48 1  
    52   25   49 1  
    53   26   50 1  
    54   27   51 1  
    55   28   52 1  
    56   28   53 1  
    57   28   54 1  
    58   29   55 1  
    59   29   56 1  
    60   29   57 1  
@<TRIPOS>SUBSTRUCTURE
     1 303         1

