### 
### Created by X-TOOL on Mon Sep 10 21:12:49 2018
### 

@<TRIPOS>MOLECULE
1oxn_ligand
   54    53     1     0     0
SMALL
GAST_HUCK


@<TRIPOS>ATOM
      1 N          22.3800   48.2560   -7.6980 N.4       1 ALA         0.2377
      2 CA         22.6610   47.9030   -6.2860 C.3       1 ALA         0.0621
      3 C          22.0840   46.5380   -5.9750 C.2       1 ALA         0.2264
      4 O          21.1330   46.1020   -6.6260 O.2       1 ALA        -0.3907
      5 CB         22.0710   48.9410   -5.3520 C.3       1 ALA        -0.0040
      6 N          22.6680   45.8690   -4.9840 N.am      1 GLU        -0.2609
      7 CA         22.1220   44.6230   -4.4610 C.3       1 GLU         0.1326
      8 C          22.1700   44.5980   -2.9320 C.2       1 GLU         0.2040
      9 O          23.0520   45.2130   -2.3170 O.2       1 GLU        -0.3944
     10 CB         22.8480   43.4070   -5.0430 C.3       1 GLU        -0.0008
     11 CG         24.3520   43.5600   -5.1660 C.3       1 GLU         0.0044
     12 CD         25.1050   42.3880   -4.5700 C.2       1 GLU         0.0350
     13 OE1        25.2690   42.3550   -3.3270 O.co2     1 GLU        -0.5690
     14 OE2        25.5290   41.5010   -5.3490 O.co2     1 GLU        -0.5690
     15 N          21.2120   43.8930   -2.3320 N.am      1 ALA        -0.2640
     16 CA         21.1440   43.7440   -0.8800 C.3       1 ALA         0.1282
     17 C          22.3510   42.9700   -0.3710 C.2       1 ALA         0.2031
     18 O          22.9460   42.1850   -1.1090 O.2       1 ALA        -0.3944
     19 CB         19.8550   43.0480   -0.4810 C.3       1 ALA        -0.0244
     20 N          22.7310   43.2130    0.8780 N.am      1 VAL        -0.2692
     21 CA         23.8300   42.4700    1.4910 C.3       1 VAL         0.0967
     22 C          23.3010   41.2020    2.1740 C.2       1 VAL         0.0603
     23 O          22.2170   41.1930    2.7640 O.co2     1 VAL        -0.5666
     24 CB         24.6810   43.3540    2.4590 C.3       1 VAL        -0.0118
     25 CG1        23.8660   43.8230    3.6580 C.3       1 VAL        -0.0590
     26 CG2        25.9520   42.6230    2.9070 C.3       1 VAL        -0.0590
     27 O1         23.9883   40.1468    2.1316 O.co2     1 VAL        -0.5666
     28 H1         22.7658   49.1650   -7.9002 H         1 ALA         0.2015
     29 H2         21.3834   48.2730   -7.8482 H         1 ALA         0.2015
     30 H3         22.7997   47.5701   -8.3058 H         1 ALA         0.2015
     31 H4         23.7505   47.8719   -6.1379 H         1 ALA         0.1095
     32 H5         22.2890   48.6630   -4.3103 H         1 ALA         0.0310
     33 H6         20.9819   48.9891   -5.4983 H         1 ALA         0.0310
     34 H7         22.5140   49.9241   -5.5695 H         1 ALA         0.0310
     35 H8         23.5094   46.2333   -4.5849 H         1 GLU         0.1885
     36 H9         21.0671   44.5645   -4.7672 H         1 GLU         0.0801
     37 H10        22.4410   43.2139   -6.0465 H         1 GLU         0.0330
     38 H11        22.6444   42.5437   -4.3924 H         1 GLU         0.0330
     39 H12        24.6572   44.4782   -4.6428 H         1 GLU         0.0433
     40 H13        24.6124   43.6414   -6.2316 H         1 GLU         0.0433
     41 H14        20.5146   43.4500   -2.8954 H         1 ALA         0.1883
     42 H15        21.1548   44.7453   -0.4248 H         1 ALA         0.0797
     43 H16        19.8185   42.9433    0.6134 H         1 ALA         0.0277
     44 H17        19.8170   42.0519   -0.9461 H         1 ALA         0.0277
     45 H18        18.9957   43.6446   -0.8211 H         1 ALA         0.0277
     46 H19        22.2571   43.9163    1.4080 H         1 VAL         0.1875
     47 H20        24.4997   42.1491    0.6796 H         1 VAL         0.0729
     48 H21        24.9921   44.2492    1.9006 H         1 VAL         0.0336
     49 H22        24.4989   44.4401    4.3127 H         1 VAL         0.0234
     50 H23        23.5014   42.9492    4.2180 H         1 VAL         0.0234
     51 H24        23.0094   44.4183    3.3089 H         1 VAL         0.0234
     52 H25        26.5186   42.2970    2.0223 H         1 VAL         0.0234
     53 H26        25.6769   41.7452    3.5102 H         1 VAL         0.0234
     54 H27        26.5725   43.3023    3.5099 H         1 VAL         0.0234
@<TRIPOS>BOND
     1    2    1 1  
     2    2    5 1  
     3    3    2 1  
     4    3    4 2  
     5    7    6 1  
     6    7   10 1  
     7    8    7 1  
     8    8    9 2  
     9   10   11 1  
    10   11   12 1  
    11   12   14 ar 
    12   12   13 ar 
    13    6    3 am 
    14   16   15 1  
    15   16   19 1  
    16   17   16 1  
    17   17   18 2  
    18   15    8 am 
    19   20   21 1  
    20   21   24 1  
    21   21   22 1  
    22   22   23 ar 
    23   24   26 1  
    24   24   25 1  
    25   17   20 am 
    26   22   27 ar 
    27    1   28 1  
    28    1   29 1  
    29    1   30 1  
    30    2   31 1  
    31    5   32 1  
    32    5   33 1  
    33    5   34 1  
    34    6   35 1  
    35    7   36 1  
    36   10   37 1  
    37   10   38 1  
    38   11   39 1  
    39   11   40 1  
    40   15   41 1  
    41   16   42 1  
    42   19   43 1  
    43   19   44 1  
    44   19   45 1  
    45   20   46 1  
    46   21   47 1  
    47   24   48 1  
    48   25   49 1  
    49   25   50 1  
    50   25   51 1  
    51   26   52 1  
    52   26   53 1  
    53   26   54 1  
@<TRIPOS>SUBSTRUCTURE
     1 ALA         1

