### 
### Created by X-TOOL on Mon Sep 10 21:12:49 2018
### 

@<TRIPOS>MOLECULE
1oxq_ligand
   62    62     1     0     0
SMALL
GAST_HUCK


@<TRIPOS>ATOM
      1 N          22.2690   48.5480   -7.6420 N.4       1 ALA         0.2377
      2 CA         22.6620   48.1820   -6.2580 C.3       1 ALA         0.0621
      3 C          21.9960   46.8720   -5.8630 C.2       1 ALA         0.2264
      4 O          20.9800   46.4800   -6.4400 O.2       1 ALA        -0.3907
      5 CB         22.2940   49.2960   -5.2770 C.3       1 ALA        -0.0040
      6 N          22.5740   46.2140   -4.8660 N.am      1 VAL        -0.2608
      7 CA         22.1160   44.9170   -4.4070 C.3       1 VAL         0.1336
      8 C          22.2050   44.9340   -2.8710 C.2       1 VAL         0.2067
      9 O          23.0470   45.6550   -2.3290 O.2       1 VAL        -0.3942
     10 CB         22.9730   43.7940   -5.1050 C.3       1 VAL        -0.0062
     11 CG1        22.7520   43.7160   -6.6300 C.3       1 VAL        -0.0584
     12 CG2        24.4340   43.8910   -4.7180 C.3       1 VAL        -0.0584
     13 N          21.3290   44.2180   -2.1560 N.am      1 PRO        -0.2498
     14 CA         21.4480   44.1390   -0.6910 C.3       1 PRO         0.1337
     15 C          22.7890   43.6040   -0.2330 C.2       1 PRO         0.2036
     16 O          23.4190   42.8220   -0.9470 O.2       1 PRO        -0.3944
     17 CB         20.3310   43.1710   -0.2980 C.3       1 PRO        -0.0104
     18 CG         19.3260   43.3490   -1.3570 C.3       1 PRO        -0.0281
     19 CD         20.1380   43.4900   -2.6330 C.3       1 PRO         0.0369
     20 N          23.2330   44.0670    0.9340 N.am      1 ILE        -0.2692
     21 CA         24.3870   43.4850    1.6090 C.3       1 ILE         0.0969
     22 C          23.8790   42.2230    2.2870 C.2       1 ILE         0.0604
     23 O          23.1160   42.3070    3.2530 O.co2     1 ILE        -0.5666
     24 CB         24.9930   44.4510    2.6690 C.3       1 ILE        -0.0092
     25 CG1        25.3380   45.8130    2.0580 C.3       1 ILE        -0.0497
     26 CG2        26.2200   43.8240    3.3300 C.3       1 ILE        -0.0588
     27 CD1        25.5220   46.9150    3.0920 C.3       1 ILE        -0.0649
     28 O1         24.2368   41.0918    1.8628 O.co2     1 ILE        -0.5666
     29 H1         22.7125   49.4160   -7.8988 H         1 ALA         0.2015
     30 H2         21.2679   48.6553   -7.6898 H         1 ALA         0.2015
     31 H3         22.5598   47.8213   -8.2772 H         1 ALA         0.2015
     32 H4         23.7527   48.0422   -6.2295 H         1 ALA         0.1095
     33 H5         22.5941   49.0030   -4.2601 H         1 ALA         0.0310
     34 H6         21.2073   49.4645   -5.3043 H         1 ALA         0.0310
     35 H7         22.8159   50.2218   -5.5608 H         1 ALA         0.0310
     36 H8         23.3606   46.6313   -4.4109 H         1 VAL         0.1885
     37 H9         21.0642   44.7722   -4.6945 H         1 VAL         0.0803
     38 H10        22.6116   42.8371   -4.7004 H         1 VAL         0.0343
     39 H11        23.3778   42.9151   -7.0507 H         1 VAL         0.0234
     40 H12        23.0274   44.6764   -7.0900 H         1 VAL         0.0234
     41 H13        21.6932   43.5007   -6.8366 H         1 VAL         0.0234
     42 H14        24.5205   43.9431   -3.6226 H         1 VAL         0.0234
     43 H15        24.8721   44.7962   -5.1638 H         1 VAL         0.0234
     44 H16        24.9706   43.0042   -5.0864 H         1 VAL         0.0234
     45 H17        21.2854   45.1294   -0.2409 H         1 PRO         0.0802
     46 H18        19.9142   43.4318    0.6860 H         1 PRO         0.0313
     47 H19        20.6994   42.1347   -0.2772 H         1 PRO         0.0313
     48 H20        18.6619   42.4740   -1.4136 H         1 PRO         0.0287
     49 H21        18.7265   44.2533   -1.1758 H         1 PRO         0.0287
     50 H22        20.4085   42.5070   -3.0458 H         1 PRO         0.0524
     51 H23        19.5925   44.0692   -3.3925 H         1 PRO         0.0524
     52 H24        22.7602   44.8379    1.3607 H         1 ILE         0.1875
     53 H25        25.1622   43.2333    0.8703 H         1 ILE         0.0729
     54 H26        24.2342   44.6149    3.4483 H         1 ILE         0.0338
     55 H27        24.5239   46.1058    1.3787 H         1 ILE         0.0267
     56 H28        26.2730   45.7116    1.4876 H         1 ILE         0.0267
     57 H29        25.9468   42.8491    3.7601 H         1 ILE         0.0234
     58 H30        26.5858   44.4871    4.1277 H         1 ILE         0.0234
     59 H31        27.0105   43.6843    2.5779 H         1 ILE         0.0234
     60 H32        25.7664   47.8587    2.5825 H         1 ILE         0.0230
     61 H33        26.3408   46.6442    3.7747 H         1 ILE         0.0230
     62 H34        24.5917   47.0384    3.6659 H         1 ILE         0.0230
@<TRIPOS>BOND
     1    2    1 1  
     2    2    5 1  
     3    3    2 1  
     4    3    4 2  
     5    7    6 1  
     6    7   10 1  
     7    8    7 1  
     8    8    9 2  
     9   10   12 1  
    10   10   11 1  
    11    6    3 am 
    12   15   14 1  
    13   14   17 1  
    14   14   13 1  
    15   13   19 1  
    16   19   18 1  
    17   17   18 1  
    18   15   16 2  
    19   13    8 am 
    20   20   21 1  
    21   21   24 1  
    22   21   22 1  
    23   22   23 ar 
    24   24   26 1  
    25   24   25 1  
    26   25   27 1  
    27   15   20 am 
    28   22   28 ar 
    29    1   29 1  
    30    1   30 1  
    31    1   31 1  
    32    2   32 1  
    33    5   33 1  
    34    5   34 1  
    35    5   35 1  
    36    6   36 1  
    37    7   37 1  
    38   10   38 1  
    39   11   39 1  
    40   11   40 1  
    41   11   41 1  
    42   12   42 1  
    43   12   43 1  
    44   12   44 1  
    45   14   45 1  
    46   17   46 1  
    47   17   47 1  
    48   18   48 1  
    49   18   49 1  
    50   19   50 1  
    51   19   51 1  
    52   20   52 1  
    53   21   53 1  
    54   24   54 1  
    55   25   55 1  
    56   25   56 1  
    57   26   57 1  
    58   26   58 1  
    59   26   59 1  
    60   27   60 1  
    61   27   61 1  
    62   27   62 1  
@<TRIPOS>SUBSTRUCTURE
     1 ALA         1

