### 
### Created by X-TOOL on Mon Sep 10 21:12:51 2018
### 

@<TRIPOS>MOLECULE
1oxr_ligand
   20    20     1     0     0
SMALL
GAST_HUCK


@<TRIPOS>ATOM
      1 O1         13.9070   16.1300    0.6240 O.co2     1 AIN        -0.5640
      2 C7         13.2540   15.7780    1.7230 C.2       1 AIN         0.0590
      3 O2         13.9110   15.7590    2.7490 O.co2     1 AIN        -0.5640
      4 C3         11.8300   15.3160    1.6640 C.ar      1 AIN         0.0437
      5 C4         11.1140   15.3810    0.4560 C.ar      1 AIN        -0.0550
      6 C5          9.7740   15.0010    0.4290 C.ar      1 AIN        -0.0684
      7 C6          9.1200   14.6010    1.5800 C.ar      1 AIN        -0.0668
      8 C1          9.7520   14.5680    2.8020 C.ar      1 AIN        -0.0242
      9 C2         11.0880   14.9220    2.9230 C.ar      1 AIN         0.1380
     10 O3         11.8230   14.9060    4.0900 O.3       1 AIN        -0.2106
     11 C8         12.4770   13.7700    4.7690 C.2       1 AIN         0.2550
     12 O4         12.6860   13.8700    5.9710 O.2       1 AIN        -0.3635
     13 C9         12.8900   12.5090    4.0560 C.3       1 AIN         0.0416
     14 H1         11.6016   15.7247   -0.4491 H         1 AIN         0.0625
     15 H2          9.2343   15.0192   -0.5109 H         1 AIN         0.0537
     16 H3          8.0791   14.3048    1.5178 H         1 AIN         0.0612
     17 H4          9.1984   14.2612    3.6821 H         1 AIN         0.0560
     18 H5         13.3535   11.8167    4.7743 H         1 AIN         0.0486
     19 H6         13.6136   12.7552    3.2649 H         1 AIN         0.0486
     20 H7         12.0046   12.0341    3.6082 H         1 AIN         0.0486
@<TRIPOS>BOND
     1    1    2 ar 
     2    2    3 ar 
     3    2    4 1  
     4    4    5 ar 
     5    4    9 ar 
     6    5    6 ar 
     7    6    7 ar 
     8    7    8 ar 
     9    8    9 ar 
    10    9   10 1  
    11   10   11 1  
    12   11   12 2  
    13   11   13 1  
    14    5   14 1  
    15    6   15 1  
    16    7   16 1  
    17    8   17 1  
    18   13   18 1  
    19   13   19 1  
    20   13   20 1  
@<TRIPOS>SUBSTRUCTURE
     1 AIN         1

