### 
### Created by X-TOOL on Mon Sep 10 21:12:49 2018
### 

@<TRIPOS>MOLECULE
1oy7_ligand
   60    59     1     0     0
SMALL
GAST_HUCK


@<TRIPOS>ATOM
      1 N          22.4370   48.7420   -7.8020 N.4       1 ALA         0.2377
      2 CA         22.8640   48.4000   -6.4240 C.3       1 ALA         0.0621
      3 C          22.2130   47.0990   -5.9830 C.2       1 ALA         0.2264
      4 O          21.1540   46.7250   -6.4890 O.2       1 ALA        -0.3907
      5 CB         22.5220   49.5310   -5.4610 C.3       1 ALA        -0.0040
      6 N          22.8600   46.4010   -5.0570 N.am      1 GLU        -0.2609
      7 CA         22.3240   45.1550   -4.5120 C.3       1 GLU         0.1326
      8 C          22.3740   45.1810   -3.0010 C.2       1 GLU         0.2040
      9 O          23.2350   45.8280   -2.4080 O.2       1 GLU        -0.3944
     10 CB         23.0750   43.9260   -5.0440 C.3       1 GLU        -0.0008
     11 CG         24.5400   44.1580   -5.3730 C.3       1 GLU         0.0044
     12 CD         25.4520   43.0520   -4.8600 C.2       1 GLU         0.0350
     13 OE1        25.5070   42.8320   -3.6210 O.co2     1 GLU        -0.5690
     14 OE2        26.1210   42.4080   -5.7050 O.co2     1 GLU        -0.5690
     15 N          21.4340   44.4790   -2.3840 N.am      1 VAL        -0.2635
     16 CA         21.3520   44.3870   -0.9350 C.3       1 VAL         0.1332
     17 C          22.5870   43.6920   -0.3850 C.2       1 VAL         0.2036
     18 O          23.1140   42.7760   -1.0080 O.2       1 VAL        -0.3944
     19 CB         20.0920   43.6230   -0.5230 C.3       1 VAL        -0.0063
     20 CG1        20.2400   43.0280    0.8610 C.3       1 VAL        -0.0584
     21 CG2        18.9000   44.5460   -0.5770 C.3       1 VAL        -0.0584
     22 N          23.0690   44.1510    0.7640 N.am      1 VAL        -0.2692
     23 CA         24.1310   43.4350    1.4590 C.3       1 VAL         0.0967
     24 C          23.4990   42.4760    2.4670 C.2       1 VAL         0.0603
     25 O          22.9010   42.9250    3.4550 O.co2     1 VAL        -0.5666
     26 CB         25.2050   44.3760    2.1060 C.3       1 VAL        -0.0118
     27 CG1        24.5800   45.4350    3.0180 C.3       1 VAL        -0.0590
     28 CG2        26.2700   43.5570    2.8470 C.3       1 VAL        -0.0590
     29 O1         23.5858   41.2310    2.2938 O.co2     1 VAL        -0.5666
     30 H1         22.8738   49.6054   -8.0846 H         1 ALA         0.2015
     31 H2         21.4350   48.8487   -7.8266 H         1 ALA         0.2015
     32 H3         22.7120   48.0046   -8.4318 H         1 ALA         0.2015
     33 H4         23.9552   48.2613   -6.4213 H         1 ALA         0.1095
     34 H5         22.8461   49.2587   -4.4457 H         1 ALA         0.0310
     35 H6         21.4352   49.7006   -5.4658 H         1 ALA         0.0310
     36 H7         23.0379   50.4498   -5.7765 H         1 ALA         0.0310
     37 H8         23.7402   46.7378   -4.7225 H         1 GLU         0.1885
     38 H9         21.2721   45.0723   -4.8229 H         1 GLU         0.0801
     39 H10        22.5694   43.5882   -5.9606 H         1 GLU         0.0330
     40 H11        23.0182   43.1355   -4.2812 H         1 GLU         0.0330
     41 H12        24.8541   45.1091   -4.9184 H         1 GLU         0.0433
     42 H13        24.6473   44.2208   -6.4659 H         1 GLU         0.0433
     43 H14        20.7555   43.9943   -2.9359 H         1 VAL         0.1883
     44 H15        21.3018   45.4036   -0.5180 H         1 VAL         0.0802
     45 H16        19.9329   42.8016   -1.2371 H         1 VAL         0.0343
     46 H17        19.3203   42.4866    1.1276 H         1 VAL         0.0234
     47 H18        20.4157   43.8333    1.5895 H         1 VAL         0.0234
     48 H19        21.0915   42.3317    0.8717 H         1 VAL         0.0234
     49 H20        18.8087   44.9681   -1.5887 H         1 VAL         0.0234
     50 H21        19.0340   45.3609    0.1496 H         1 VAL         0.0234
     51 H22        17.9881   43.9820   -0.3314 H         1 VAL         0.0234
     52 H23        22.7005   44.9943    1.1553 H         1 VAL         0.1875
     53 H24        24.6592   42.8262    0.7105 H         1 VAL         0.0729
     54 H25        25.7088   44.9095    1.2865 H         1 VAL         0.0336
     55 H26        25.3736   46.0661    3.4445 H         1 VAL         0.0234
     56 H27        24.0288   44.9397    3.8309 H         1 VAL         0.0234
     57 H28        23.8887   46.0602    2.4339 H         1 VAL         0.0234
     58 H29        26.6971   42.8078    2.1642 H         1 VAL         0.0234
     59 H30        25.8092   43.0489    3.7070 H         1 VAL         0.0234
     60 H31        27.0673   44.2271    3.2010 H         1 VAL         0.0234
@<TRIPOS>BOND
     1    1    2 1  
     2    2    3 1  
     3    2    5 1  
     4    3    4 2  
     5    3    6 am 
     6    6    7 1  
     7    7    8 1  
     8    7   10 1  
     9    8    9 2  
    10    8   15 am 
    11   10   11 1  
    12   11   12 1  
    13   12   13 ar 
    14   12   14 ar 
    15   15   16 1  
    16   16   17 1  
    17   16   19 1  
    18   17   18 2  
    19   17   22 am 
    20   19   20 1  
    21   19   21 1  
    22   22   23 1  
    23   23   24 1  
    24   23   26 1  
    25   24   25 ar 
    26   26   27 1  
    27   26   28 1  
    28   24   29 ar 
    29    1   30 1  
    30    1   31 1  
    31    1   32 1  
    32    2   33 1  
    33    5   34 1  
    34    5   35 1  
    35    5   36 1  
    36    6   37 1  
    37    7   38 1  
    38   10   39 1  
    39   10   40 1  
    40   11   41 1  
    41   11   42 1  
    42   15   43 1  
    43   16   44 1  
    44   19   45 1  
    45   20   46 1  
    46   20   47 1  
    47   20   48 1  
    48   21   49 1  
    49   21   50 1  
    50   21   51 1  
    51   22   52 1  
    52   23   53 1  
    53   26   54 1  
    54   27   55 1  
    55   27   56 1  
    56   27   57 1  
    57   28   58 1  
    58   28   59 1  
    59   28   60 1  
@<TRIPOS>SUBSTRUCTURE
     1 ALA         1

