### 
### Created by X-TOOL on Mon Sep 10 21:12:50 2018
### 

@<TRIPOS>MOLECULE
1oyn_ligand
   41    43     1     0     0
SMALL
GAST_HUCK


@<TRIPOS>ATOM
      1 C5         21.2540   -3.2740   30.4680 C.ar      1 ROL        -0.0554
      2 C6         21.7400   -4.4480   31.0430 C.ar      1 ROL        -0.0393
      3 C7         22.0940   -4.4810   32.3930 C.ar      1 ROL         0.1139
      4 C8         21.9610   -3.3420   33.1720 C.ar      1 ROL         0.1122
      5 C9         21.4790   -2.1700   32.6060 C.ar      1 ROL        -0.0479
      6 C10        21.1300   -2.1420   31.2610 C.ar      1 ROL        -0.0796
      7 C3         20.8630   -3.2240   29.0110 C.3       1 ROL         0.0221
      8 C2         19.4400   -3.7790   28.8390 C.3       1 ROL         0.0499
      9 C1         19.4880   -5.0470   28.0610 C.2       1 ROL         0.1782
     10 O1         18.5410   -5.7940   27.8120 O.2       1 ROL        -0.3969
     11 N1         20.7510   -5.2210   27.7150 N.am      1 ROL        -0.2847
     12 C4         21.7150   -4.2220   28.1770 C.3       1 ROL         0.0437
     13 O3         22.5960   -5.6250   32.9860 O.3       1 ROL        -0.3201
     14 C11        22.1190   -6.8220   32.3590 C.3       1 ROL         0.0787
     15 C15        21.2430   -7.5860   33.3500 C.3       1 ROL        -0.0226
     16 C14        21.9100   -8.8930   33.7440 C.3       1 ROL        -0.0503
     17 C13        23.2260   -8.9740   32.9780 C.3       1 ROL        -0.0503
     18 C12        23.3160   -7.7340   32.1060 C.3       1 ROL        -0.0226
     19 O2         22.2940   -3.3960   34.5130 O.3       1 ROL        -0.3294
     20 C16        23.1470   -2.3210   34.8730 C.3       1 ROL         0.0554
     21 H1         21.8436   -5.3411   30.4374 H         1 ROL         0.0450
     22 H2         21.3749   -1.2775   33.2123 H         1 ROL         0.0493
     23 H3         20.7556   -1.2228   30.8252 H         1 ROL         0.0436
     24 H4         20.9515   -2.1965   28.6284 H         1 ROL         0.0483
     25 H5         18.8228   -3.0436   28.3021 H         1 ROL         0.0526
     26 H6         19.0010   -3.9734   29.8287 H         1 ROL         0.0526
     27 H7         21.0363   -6.0028   27.1605 H         1 ROL         0.1852
     28 H8         22.4909   -4.6888   28.8015 H         1 ROL         0.0544
     29 H9         22.1878   -3.7130   27.3241 H         1 ROL         0.0544
     30 H10        21.5761   -6.5921   31.4303 H         1 ROL         0.0645
     31 H11        20.2702   -7.8011   32.8837 H         1 ROL         0.0294
     32 H12        21.0907   -6.9708   34.2491 H         1 ROL         0.0294
     33 H13        21.2643   -9.7421   33.4754 H         1 ROL         0.0266
     34 H14        22.1024   -8.9069   34.8269 H         1 ROL         0.0266
     35 H15        23.2419   -9.8775   32.3508 H         1 ROL         0.0266
     36 H16        24.0707   -9.0015   33.6821 H         1 ROL         0.0266
     37 H17        24.2428   -7.1906   32.3421 H         1 ROL         0.0294
     38 H18        23.3264   -8.0343   31.0478 H         1 ROL         0.0294
     39 H19        23.3937   -2.3911   35.9427 H         1 ROL         0.0570
     40 H20        22.6370   -1.3665   34.6761 H         1 ROL         0.0570
     41 H21        24.0717   -2.3720   34.2794 H         1 ROL         0.0570
@<TRIPOS>BOND
     1    1    2 ar 
     2    1    6 ar 
     3    1    7 1  
     4    2    3 ar 
     5    3    4 ar 
     6    3   13 1  
     7    4    5 ar 
     8    4   19 1  
     9    5    6 ar 
    10    7    8 1  
    11    7   12 1  
    12    8    9 1  
    13    9   10 2  
    14    9   11 am 
    15   11   12 1  
    16   13   14 1  
    17   14   15 1  
    18   14   18 1  
    19   15   16 1  
    20   16   17 1  
    21   17   18 1  
    22   19   20 1  
    23    2   21 1  
    24    5   22 1  
    25    6   23 1  
    26    7   24 1  
    27    8   25 1  
    28    8   26 1  
    29   11   27 1  
    30   12   28 1  
    31   12   29 1  
    32   14   30 1  
    33   15   31 1  
    34   15   32 1  
    35   16   33 1  
    36   16   34 1  
    37   17   35 1  
    38   17   36 1  
    39   18   37 1  
    40   18   38 1  
    41   20   39 1  
    42   20   40 1  
    43   20   41 1  
@<TRIPOS>SUBSTRUCTURE
     1 ROL         1

