### 
### Created by X-TOOL on Mon Sep 10 21:12:49 2018
### 

@<TRIPOS>MOLECULE
1oyq_ligand
   71    75     1     0     0
SMALL
GAST_HUCK


@<TRIPOS>ATOM
      1 N1         -5.0190   10.1310   19.8050 N.pl3     1 T87        -0.2736
      2 N2         -3.1090   10.8320   19.0180 N.pl3     1 T87        -0.2736
      3 C1         -3.7590    9.8110   19.5430 C.cat     1 T87         0.2283
      4 C2         -3.1990    8.5470   19.7670 C.ar      1 T87         0.0122
      5 C3         -3.9600    7.4910   20.3590 C.ar      1 T87        -0.0685
      6 C4         -3.4050    6.2260   20.5810 C.ar      1 T87        -0.0444
      7 C5         -2.0670    5.9600   20.2190 C.ar      1 T87         0.0403
      8 C6         -1.2860    6.9720   19.6350 C.ar      1 T87        -0.0444
      9 C7         -1.8370    8.2440   19.4110 C.ar      1 T87        -0.0685
     10 N          -1.4620    4.6710   20.4280 N.pl3     1 T87        -0.3029
     11 C          -1.9140    3.5810   21.3250 C.3       1 T87         0.1078
     12 N3         -3.3210    4.2790   23.2760 N.2       1 T87        -0.3070
     13 C8         -2.0490    3.9470   22.8090 C.2       1 T87         0.1515
     14 N9         -0.9360    3.9540   23.6790 N.pl3     1 T87        -0.2215
     15 C3A        -1.6050    4.3430   24.8400 C.ar      1 T87         0.1030
     16 C7A        -3.0180    4.5350   24.5940 C.ar      1 T87         0.0452
     17 C10        -1.0780    4.5600   26.1550 C.ar      1 T87        -0.0226
     18 C11        -1.9480    4.9610   27.1810 C.ar      1 T87        -0.0691
     19 C12        -3.3470    5.1540   26.9540 C.ar      1 T87        -0.0944
     20 C13        -3.8870    4.9410   25.6560 C.ar      1 T87        -0.0528
     21 C14         0.5100    3.6470   23.4490 C.3       1 T87         0.0503
     22 C9         -5.7810    5.6030   28.0770 C.3       1 T87        -0.1039
     23 C15        -5.0300    6.9050   27.7080 C.3       1 T87        -0.1039
     24 C16        -4.2700    5.6670   28.1120 C.3       1 T87        -0.0336
     25 C17        -3.6240    5.2410   29.4620 C.2       1 T87         0.0743
     26 N4         -3.7730    4.0090   29.8970 N.2       1 T87        -0.0578
     27 N5         -2.8060    6.2900   31.6930 N.ar      1 T87        -0.2940
     28 C18        -2.7890    6.2830   30.2730 C.ar      1 T87         0.0567
     29 C19        -2.0000    7.2410   29.5940 C.ar      1 T87        -0.0283
     30 C20        -1.2420    8.1850   30.3270 C.ar      1 T87        -0.0434
     31 C21        -1.2610    8.1900   31.7450 C.ar      1 T87        -0.0357
     32 C22        -2.0430    7.2420   32.4320 C.ar      1 T87         0.0082
     33 OH         -4.5710    3.0370   29.1000 O.3       1 T87        -0.1448
     34 C23        -4.6000    1.7620   29.7460 C.3       1 T87         0.2196
     35 C24        -5.3700    0.7670   28.8600 C.2       1 T87         0.2735
     36 O2         -6.0520   -0.1190   29.3960 O.2       1 T87        -0.3667
     37 O3         -5.2870    0.8810   27.4870 O.3       1 T87        -0.2746
     38 C25        -6.2810    0.2790   25.3430 C.3       1 T87        -0.0371
     39 C26        -6.0670   -0.1290   26.8150 C.3       1 T87         0.0741
     40 H1         -5.3590   11.0841   19.6127 H         1 T87         0.3179
     41 H2         -5.6577    9.4265   20.2008 H         1 T87         0.3179
     42 H3         -2.1164   10.7335   18.7611 H         1 T87         0.3179
     43 H4         -3.5941   11.7276   18.8650 H         1 T87         0.3179
     44 H5         -4.9901    7.6747   20.6422 H         1 T87         0.0582
     45 H6         -4.0061    5.4457   21.0336 H         1 T87         0.0515
     46 H7         -0.2577    6.7705   19.3573 H         1 T87         0.0515
     47 H8         -1.2232    9.0153   18.9599 H         1 T87         0.0582
     48 H9         -0.6069    4.4821   19.8858 H         1 T87         0.1792
     49 H10        -1.1896    2.7570   21.2457 H         1 T87         0.0789
     50 H11        -2.8980    3.2396   20.9713 H         1 T87         0.0789
     51 H12        -0.0222    4.4165   26.3545 H         1 T87         0.0604
     52 H13        -1.5480    5.1293   28.1743 H         1 T87         0.0658
     53 H14        -4.9457    5.0846   25.4729 H         1 T87         0.0732
     54 H15         0.6635    3.3732   22.3947 H         1 T87         0.0574
     55 H16         0.8140    2.8089   24.0934 H         1 T87         0.0574
     56 H17         1.1158    4.5331   23.6896 H         1 T87         0.0574
     57 H18        -6.2915    5.0193   27.2968 H         1 T87         0.0084
     58 H19        -6.3534    5.5418   29.0143 H         1 T87         0.0084
     59 H20        -5.0678    7.7737   28.3817 H         1 T87         0.0084
     60 H21        -5.0059    7.2512   26.6642 H         1 T87         0.0084
     61 H22        -1.9760    7.2520   28.5103 H         1 T87         0.0706
     62 H23        -0.6390    8.9138   29.7976 H         1 T87         0.0731
     63 H24        -0.6775    8.9186   32.2961 H         1 T87         0.0696
     64 H25        -2.0651    7.2356   33.5158 H         1 T87         0.0822
     65 H26        -5.1029    1.8537   30.7200 H         1 T87         0.0972
     66 H27        -3.5717    1.4018   29.8967 H         1 T87         0.0972
     67 H28        -6.8760   -0.4920   24.8316 H         1 T87         0.0255
     68 H29        -5.3055    0.3797   24.8448 H         1 T87         0.0255
     69 H30        -6.8143    1.2402   25.3027 H         1 T87         0.0255
     70 H31        -7.0427   -0.2298   27.3127 H         1 T87         0.0610
     71 H32        -5.5339   -1.0904   26.8549 H         1 T87         0.0610
@<TRIPOS>BOND
     1    3    1 ar 
     2    4    3 1  
     3    5    4 ar 
     4    9    4 ar 
     5    6    5 ar 
     6    7    6 ar 
     7    7    8 ar 
     8   10    7 1  
     9    8    9 ar 
    10   11   10 1  
    11   13   11 1  
    12   14   13 1  
    13   15   14 1  
    14   14   21 1  
    15   16   15 ar 
    16   17   15 ar 
    17   20   16 ar 
    18   18   17 ar 
    19   19   18 ar 
    20   19   20 ar 
    21   24   19 1  
    22   22   23 1  
    23   24   22 1  
    24   23   24 1  
    25   24   25 1  
    26   25   26 2  
    27   25   28 1  
    28   26   33 1  
    29   28   29 ar 
    30   29   30 ar 
    31   30   31 ar 
    32   31   32 ar 
    33   33   34 1  
    34   34   35 1  
    35   35   36 2  
    36   35   37 1  
    37   37   39 1  
    38   39   38 1  
    39   32   27 ar 
    40   28   27 ar 
    41   16   12 1  
    42   13   12 2  
    43    3    2 ar 
    44    1   40 1  
    45    1   41 1  
    46    2   42 1  
    47    2   43 1  
    48    5   44 1  
    49    6   45 1  
    50    8   46 1  
    51    9   47 1  
    52   10   48 1  
    53   11   49 1  
    54   11   50 1  
    55   17   51 1  
    56   18   52 1  
    57   20   53 1  
    58   21   54 1  
    59   21   55 1  
    60   21   56 1  
    61   22   57 1  
    62   22   58 1  
    63   23   59 1  
    64   23   60 1  
    65   29   61 1  
    66   30   62 1  
    67   31   63 1  
    68   32   64 1  
    69   34   65 1  
    70   34   66 1  
    71   38   67 1  
    72   38   68 1  
    73   38   69 1  
    74   39   70 1  
    75   39   71 1  
@<TRIPOS>SUBSTRUCTURE
     1 T87         1

