### 
### Created by X-TOOL on Mon Sep 10 21:12:49 2018
### 

@<TRIPOS>MOLECULE
1oyt_ligand
   55    59     1     0     0
SMALL
GAST_HUCK


@<TRIPOS>ATOM
      1 O21        16.6950  -12.8160   22.7290 O.2       1 FSN        -0.3850
      2 C20        17.4090  -12.5450   21.7800 C.2       1 FSN         0.2221
      3 N19        18.5310  -13.3290   21.4300 N.am      1 FSN        -0.1734
      4 C23        18.8670  -14.5430   22.1730 C.3       1 FSN         0.0905
      5 C24        19.7880  -14.2110   23.3150 C.ar      1 FSN        -0.0199
      6 C32        19.2510  -14.0800   24.6100 C.ar      1 FSN        -0.0597
      7 C31        20.1060  -13.8060   25.6770 C.ar      1 FSN        -0.0348
      8 C30        21.4750  -13.6670   25.4130 C.ar      1 FSN         0.1248
      9 F29        22.2470  -13.4240   26.4870 F         1 FSN        -0.1893
     10 C26        22.0580  -13.7740   24.1420 C.ar      1 FSN        -0.0348
     11 C25        21.1740  -14.0520   23.0690 C.ar      1 FSN        -0.0597
     12 C17        19.0640  -12.9060   20.1780 C.2       1 FSN         0.2202
     13 O18        20.0420  -13.3920   19.6320 O.2       1 FSN        -0.3852
     14 C16        18.2450  -11.8120   19.6630 C.3       1 FSN         0.1237
     15 C15        17.2170  -12.1980   18.6000 C.3       1 FSN         0.0043
     16 N11        15.7990  -12.4400   19.1400 N.4       1 FSN         0.2554
     17 C12        14.9690  -11.9970   17.9830 C.3       1 FSN        -0.0294
     18 C13        15.8910  -12.1930   16.7360 C.3       1 FSN        -0.0072
     19 C14        17.2510  -11.6720   17.2230 C.3       1 FSN        -0.0022
     20 C10        15.8630  -11.3370   20.1940 C.3       1 FSN         0.0362
     21 C7         14.6700  -11.2040   21.0920 C.ar      1 FSN         0.0072
     22 C8         13.9280  -12.3500   21.3610 C.ar      1 FSN        -0.0548
     23 C9         12.8510  -12.2910   22.2350 C.ar      1 FSN        -0.0632
     24 C4         12.5240  -11.0440   22.8370 C.ar      1 FSN         0.0188
     25 C5         13.2700   -9.8900   22.5730 C.ar      1 FSN        -0.0632
     26 C6         14.3560   -9.9610   21.6950 C.ar      1 FSN        -0.0548
     27 C3         11.3830  -11.0010   23.7370 C.cat     1 FSN         0.2318
     28 N1         10.5520  -12.0640   23.8870 N.pl3     1 FSN        -0.2729
     29 N2         11.0790   -9.9100   24.4850 N.pl3     1 FSN        -0.2729
     30 C22        17.2470  -11.4430   20.8070 C.3       1 FSN         0.1316
     31 H1         19.3649  -15.2559   21.4994 H         1 FSN         0.0733
     32 H2         17.9452  -14.9946   22.5684 H         1 FSN         0.0733
     33 H3         18.1855  -14.1908   24.7756 H         1 FSN         0.0548
     34 H4         19.7212  -13.7031   26.6852 H         1 FSN         0.0587
     35 H5         23.1240  -13.6511   23.9887 H         1 FSN         0.0587
     36 H6         21.5589  -14.1429   22.0597 H         1 FSN         0.0548
     37 H7         18.8814  -10.9766   19.3359 H         1 FSN         0.0632
     38 H8         17.5451  -13.2296   18.4046 H         1 FSN         0.0882
     39 H9         15.5790  -13.3615   19.4843 H         1 FSN         0.2057
     40 H10        14.6836  -10.9403   18.0922 H         1 FSN         0.0815
     41 H11        14.0629  -12.6146   17.8964 H         1 FSN         0.0815
     42 H12        15.5271  -11.6063   15.8797 H         1 FSN         0.0319
     43 H13        15.9529  -13.2543   16.4536 H         1 FSN         0.0319
     44 H14        18.0857  -12.0906   16.6416 H         1 FSN         0.0323
     45 H15        17.3039  -10.5735   17.2018 H         1 FSN         0.0323
     46 H16        15.8652  -10.3885   19.6369 H         1 FSN         0.1048
     47 H17        14.1910  -13.2892   20.8879 H         1 FSN         0.0559
     48 H18        12.2696  -13.1791   22.4549 H         1 FSN         0.0599
     49 H19        13.0085   -8.9497   23.0447 H         1 FSN         0.0599
     50 H20        14.9482   -9.0791   21.4792 H         1 FSN         0.0559
     51 H21         9.7512  -12.0047   24.5321 H         1 FSN         0.3180
     52 H22        10.7223  -12.9298   23.3557 H         1 FSN         0.3180
     53 H23        11.6644   -9.0647   24.4245 H         1 FSN         0.3180
     54 H24        10.2629   -9.9274   25.1131 H         1 FSN         0.3180
     55 H25        17.5097  -10.4839   21.2771 H         1 FSN         0.0654
@<TRIPOS>BOND
     1    1    2 2  
     2    2    3 am 
     3    2   30 1  
     4    3    4 1  
     5    3   12 am 
     6    4    5 1  
     7    5    6 ar 
     8    5   11 ar 
     9    6    7 ar 
    10    7    8 ar 
    11    8    9 1  
    12    8   10 ar 
    13   10   11 ar 
    14   12   13 2  
    15   12   14 1  
    16   14   15 1  
    17   14   30 1  
    18   15   16 1  
    19   15   19 1  
    20   16   17 1  
    21   16   20 1  
    22   17   18 1  
    23   18   19 1  
    24   20   21 1  
    25   20   30 1  
    26   21   22 ar 
    27   21   26 ar 
    28   22   23 ar 
    29   23   24 ar 
    30   24   25 ar 
    31   24   27 1  
    32   25   26 ar 
    33   27   28 ar 
    34   27   29 ar 
    35    4   31 1  
    36    4   32 1  
    37    6   33 1  
    38    7   34 1  
    39   10   35 1  
    40   11   36 1  
    41   14   37 1  
    42   15   38 1  
    43   16   39 1  
    44   17   40 1  
    45   17   41 1  
    46   18   42 1  
    47   18   43 1  
    48   19   44 1  
    49   19   45 1  
    50   20   46 1  
    51   22   47 1  
    52   23   48 1  
    53   25   49 1  
    54   26   50 1  
    55   28   51 1  
    56   28   52 1  
    57   29   53 1  
    58   29   54 1  
    59   30   55 1  
@<TRIPOS>SUBSTRUCTURE
     1 FSN         1

