### 
### Created by X-TOOL on Mon Sep 10 21:12:50 2018
### 

@<TRIPOS>MOLECULE
1ozv_ligand
   25    24     1     0     0
SMALL
GAST_HUCK


@<TRIPOS>ATOM
      1 N          69.6190  132.8230   63.0910 N.4       1 LYS         0.2327
      2 CA         69.7540  134.3000   62.9370 C.3       1 LYS         0.0283
      3 C          69.1730  134.9860   64.1640 C.2       1 LYS         0.0844
      4 O          68.9500  134.2750   65.1680 O.co2     1 LYS        -0.5643
      5 CB         69.0090  134.7830   61.6890 C.3       1 LYS         0.0026
      6 CG         69.3610  134.0410   60.4170 C.3       1 LYS        -0.0416
      7 CD         68.6450  134.6420   59.2240 C.3       1 LYS        -0.0123
      8 CE         68.8410  133.7990   57.9700 C.3       1 LYS        -0.0354
      9 NZ         68.3170  134.4910   56.7520 N.4       1 LYS         0.2185
     10 OXT        68.9470  136.2170   64.1020 O.co2     1 LYS        -0.5643
     11 H1         70.0029  132.3641   62.2798 H         1 LYS         0.2010
     12 H2         68.6445  132.5825   63.1833 H         1 LYS         0.2010
     13 H3         70.1184  132.5239   63.9139 H         1 LYS         0.2010
     14 H4         70.8194  134.5574   62.8436 H         1 LYS         0.1024
     15 H5         69.2426  135.8476   61.5407 H         1 LYS         0.0339
     16 H6         67.9299  134.6657   61.8669 H         1 LYS         0.0339
     17 H7         69.0645  132.9869   60.5213 H         1 LYS         0.0270
     18 H8         70.4470  134.1020   60.2533 H         1 LYS         0.0270
     19 H9         69.0414  135.6517   59.0410 H         1 LYS         0.0317
     20 H10        67.5698  134.7051   59.4474 H         1 LYS         0.0317
     21 H11        68.3084  132.8447   58.0949 H         1 LYS         0.0813
     22 H12        69.9152  133.6045   57.8353 H         1 LYS         0.0813
     23 H13        68.4631  133.9060   55.9442 H         1 LYS         0.1994
     24 H14        68.8036  135.3648   56.6265 H         1 LYS         0.1994
     25 H15        67.3311  134.6685   56.8644 H         1 LYS         0.1994
@<TRIPOS>BOND
     1    1    2 1  
     2    2    3 1  
     3    2    5 1  
     4    3    4 ar 
     5    3   10 ar 
     6    5    6 1  
     7    6    7 1  
     8    7    8 1  
     9    8    9 1  
    10    1   11 1  
    11    1   12 1  
    12    1   13 1  
    13    2   14 1  
    14    5   15 1  
    15    5   16 1  
    16    6   17 1  
    17    6   18 1  
    18    7   19 1  
    19    7   20 1  
    20    8   21 1  
    21    8   22 1  
    22    9   23 1  
    23    9   24 1  
    24    9   25 1  
@<TRIPOS>SUBSTRUCTURE
     1 LYS         1

