### 
### Created by X-TOOL on Sun Sep  9 21:50:04 2018
### 

@<TRIPOS>MOLECULE
1p0y_ligand
   28    27     1     0     0
SMALL
GAST_HUCK


@<TRIPOS>ATOM
      1 N          68.8050  129.6650   64.1060 N.4       1 NON         0.2327
      2 CA         69.2530  130.9650   63.6600 C.3       1 NON         0.0283
      3 CB         69.4750  131.0500   62.1650 C.3       1 NON         0.0026
      4 CG         68.2830  130.7680   61.2850 C.3       1 NON        -0.0416
      5 CD         68.6880  130.9460   59.8110 C.3       1 NON        -0.0123
      6 CE         67.5750  131.6170   59.0190 C.3       1 NON        -0.0339
      7 NZ         66.9330  130.7390   58.0080 N.4       1 NON         0.2248
      8 CM         67.2750  131.2090   56.6500 C.3       1 NON        -0.0449
      9 C          68.4160  132.1790   64.1160 C.2       1 NON         0.0844
     10 O          67.4200  131.9690   64.8770 O.co2     1 NON        -0.5643
     11 OXT        68.7960  133.2510   63.7200 O.co2     1 NON        -0.5643
     12 H1         69.4250  128.9551   63.7486 H         1 NON         0.2010
     13 H2         67.8708  129.4969   63.7668 H         1 NON         0.2010
     14 H3         68.8069  129.6364   65.1136 H         1 NON         0.2010
     15 H4         70.2412  131.0954   64.1251 H         1 NON         0.1024
     16 H5         70.2609  130.3262   61.9032 H         1 NON         0.0339
     17 H6         69.8236  132.0681   61.9373 H         1 NON         0.0339
     18 H7         67.4708  131.4681   61.5303 H         1 NON         0.0270
     19 H8         67.9399  129.7360   61.4501 H         1 NON         0.0270
     20 H9         68.8967  129.9587   59.3731 H         1 NON         0.0317
     21 H10        69.5930  131.5690   59.7589 H         1 NON         0.0317
     22 H11        67.9987  132.4890   58.4993 H         1 NON         0.0814
     23 H12        66.8017  131.9516   59.7262 H         1 NON         0.0814
     24 H13        65.9326  130.7645   58.1291 H         1 NON         0.2011
     25 H14        67.2620  129.7938   58.1280 H         1 NON         0.2011
     26 H15        66.7974  130.5558   55.9049 H         1 NON         0.0777
     27 H16        68.3665  131.1809   56.5163 H         1 NON         0.0777
     28 H17        66.9158  132.2402   56.5175 H         1 NON         0.0777
@<TRIPOS>BOND
     1    1    2 1  
     2    2    3 1  
     3    2    9 1  
     4    3    4 1  
     5    4    5 1  
     6    5    6 1  
     7    6    7 1  
     8    7    8 1  
     9    9   10 ar 
    10    9   11 ar 
    11    1   12 1  
    12    1   13 1  
    13    1   14 1  
    14    2   15 1  
    15    3   16 1  
    16    3   17 1  
    17    4   18 1  
    18    4   19 1  
    19    5   20 1  
    20    5   21 1  
    21    6   22 1  
    22    6   23 1  
    23    7   24 1  
    24    7   25 1  
    25    8   26 1  
    26    8   27 1  
    27    8   28 1  
@<TRIPOS>SUBSTRUCTURE
     1 NON         1

