### 
### Created by X-TOOL on Sun Sep  9 21:50:04 2018
### 

@<TRIPOS>MOLECULE
1p1q_ligand
   23    23     1     0     0
SMALL
GAST_HUCK


@<TRIPOS>ATOM
      1 N          48.1640   25.1450   42.7800 N.4       1 NON         0.2333
      2 CA         47.1230   26.2210   42.7750 C.3       1 NON         0.0299
      3 C          46.7770   26.5840   44.2690 C.2       1 NON         0.0853
      4 OT1        45.8330   27.3970   44.4690 O.co2     1 NON        -0.5642
      5 OT2        47.5140   26.0870   45.1680 O.co2     1 NON        -0.5642
      6 CB         45.8720   25.7340   42.0020 C.3       1 NON         0.0201
      7 CG         46.1380   25.4240   40.5560 C.2       1 NON         0.0355
      8 CD1        46.0410   26.2930   39.4350 C.2       1 NON         0.1867
      9 CD2        46.6180   24.3030   39.9520 C.2       1 NON         0.1229
     10 CE2        46.8980   22.9320   40.4510 C.3       1 NON         0.0048
     11 OE1        45.5540   27.5140   39.6680 O.2       1 NON        -0.4259
     12 NE1        46.4010   25.8480   38.2670 N.am      1 NON        -0.1399
     13 OE2        46.7930   24.4970   38.5990 O.3       1 NON        -0.1759
     14 H1         48.3981   24.8996   41.8308 H         1 NON         0.2011
     15 H2         47.8059   24.3332   43.2583 H         1 NON         0.2011
     16 H3         48.9889   25.4777   43.2542 H         1 NON         0.2011
     17 H4         47.5233   27.1141   42.2728 H         1 NON         0.1035
     18 H5         45.1044   26.5202   42.0530 H         1 NON         0.0385
     19 H6         45.4960   24.8222   42.4891 H         1 NON         0.0385
     20 H7         47.2844   22.3138   39.6273 H         1 NON         0.0455
     21 H8         45.9703   22.4866   40.8396 H         1 NON         0.0455
     22 H9         47.6466   22.9803   41.2555 H         1 NON         0.0455
     23 H10        46.4054   26.3132   37.3818 H         1 NON         0.2313
@<TRIPOS>BOND
     1    1    2 1  
     2    2    3 1  
     3    2    6 1  
     4    3    4 ar 
     5    3    5 ar 
     6    6    7 1  
     7    7    8 1  
     8    7    9 2  
     9    8   11 2  
    10    8   12 am 
    11    9   10 1  
    12    9   13 1  
    13   12   13 1  
    14    1   14 1  
    15    1   15 1  
    16    1   16 1  
    17    2   17 1  
    18    6   18 1  
    19    6   19 1  
    20   10   20 1  
    21   10   21 1  
    22   10   22 1  
    23   12   23 1  
@<TRIPOS>SUBSTRUCTURE
     1 NON         1

