### 
### Created by X-TOOL on Mon Sep 10 21:12:49 2018
### 

@<TRIPOS>MOLECULE
1p28_ligand
   14    13     1     0     0
SMALL
GAST_HUCK


@<TRIPOS>ATOM
      1 C4         11.0500    0.5970    3.2040 C.3       1 HBS        -0.0225
      2 C3         10.7400    1.2830    1.8750 C.3       1 HBS         0.1246
      3 O7          9.8280    2.3420    2.1570 O.3       1 HBS        -0.3728
      4 C2         10.1720    0.3310    0.8340 C.2       1 HBS         0.1301
      5 C1          8.8460   -0.3240    1.0680 C.3       1 HBS         0.0120
      6 O2         10.7870    0.1150   -0.2160 O.2       1 HBS        -0.3891
      7 H1         11.7538   -0.2311    3.0338 H         1 HBS         0.0280
      8 H2         10.1196    0.2037    3.6395 H         1 HBS         0.0280
      9 H3         11.5000    1.3242    3.8959 H         1 HBS         0.0280
     10 H4         11.6709    1.7081    1.4717 H         1 HBS         0.0825
     11 H5          9.6106    2.7944    1.3504 H         1 HBS         0.2134
     12 H6          8.6016   -0.9726    0.2138 H         1 HBS         0.0459
     13 H7          8.0697    0.4478    1.1761 H         1 HBS         0.0459
     14 H8          8.8925   -0.9285    1.9858 H         1 HBS         0.0459
@<TRIPOS>BOND
     1    1    2 1  
     2    2    3 1  
     3    2    4 1  
     4    4    5 1  
     5    4    6 2  
     6    1    7 1  
     7    1    8 1  
     8    1    9 1  
     9    2   10 1  
    10    3   11 1  
    11    5   12 1  
    12    5   13 1  
    13    5   14 1  
@<TRIPOS>SUBSTRUCTURE
     1 HBS         1

