### 
### Created by X-TOOL on Mon Sep 10 21:12:50 2018
### 

@<TRIPOS>MOLECULE
1p2a_ligand
   39    42     1     0     0
SMALL
GAST_HUCK


@<TRIPOS>ATOM
      1 N22        14.2480   -4.1650    8.4140 N.4       1 5BN         0.2200
      2 C21        14.5350   -5.2790    7.5030 C.3       1 5BN        -0.0148
      3 C20        14.2350   -6.6630    8.1460 C.3       1 5BN         0.0668
      4 N19        14.6540   -6.8410    9.5790 N.pl3     1 5BN        -0.3107
      5 C7         14.0580   -7.7190   10.5730 C.ar      1 5BN         0.0536
      6 C8         12.8170   -8.3510   10.2070 C.ar      1 5BN        -0.0354
      7 C9         12.0310   -9.2810   11.0660 C.ar      1 5BN        -0.0044
      8 C14        10.7880   -9.8260   10.5560 C.2       1 5BN         0.0585
      9 C15        10.1780   -9.5910    9.2850 C.2       1 5BN        -0.0699
     10 C16         8.9770  -10.3170    9.2160 C.2       1 5BN        -0.0752
     11 C17         8.8440  -10.9860   10.4120 C.2       1 5BN         0.0207
     12 N18         9.9430  -10.6700   11.1860 N.pl3     1 5BN        -0.2847
     13 C10        12.6380   -9.5240   12.3740 C.ar      1 5BN         0.0388
     14 C11        12.2270  -10.3760   13.5550 C.2       1 5BN         0.2088
     15 O13        11.2490  -11.0870   13.6800 O.2       1 5BN        -0.3879
     16 N12        13.2200  -10.1960   14.5470 N.am      1 5BN        -0.2422
     17 C6         14.1860   -9.3060   14.0450 C.ar      1 5BN         0.0650
     18 C1         15.3550   -8.7910   14.6060 C.ar      1 5BN        -0.0482
     19 C2         16.1590   -7.8850   13.8370 C.ar      1 5BN        -0.0463
     20 C3         15.8260   -7.4800   12.5230 C.ar      1 5BN         0.1244
     21 F          16.6540   -6.6250   11.8920 F         1 5BN        -0.1939
     22 C4         14.6070   -7.9950   11.9020 C.ar      1 5BN         0.0337
     23 C5         13.8310   -8.9020   12.7130 C.ar      1 5BN         0.0066
     24 H1         14.4572   -3.2926    7.9543 H         1 5BN         0.1995
     25 H2         14.8161   -4.2531    9.2420 H         1 5BN         0.1995
     26 H3         13.2736   -4.1839    8.6714 H         1 5BN         0.1995
     27 H4         15.5984   -5.2422    7.2239 H         1 5BN         0.0833
     28 H5         13.9151   -5.1666    6.6013 H         1 5BN         0.0833
     29 H6         14.7524   -7.4283    7.5489 H         1 5BN         0.0573
     30 H7         13.1488   -6.8283    8.0923 H         1 5BN         0.0573
     31 H8         15.4558   -6.2757    9.8927 H         1 5BN         0.1815
     32 H9         12.4206   -8.1314    9.2223 H         1 5BN         0.0453
     33 H10        10.5787   -8.9533    8.4984 H         1 5BN         0.0358
     34 H11         8.2837  -10.3452    8.3767 H         1 5BN         0.0318
     35 H12         8.0233  -11.6433   10.6954 H         1 5BN         0.0878
     36 H13        10.1003  -11.0364   12.1357 H         1 5BN         0.2334
     37 H14        13.2326  -10.6272   15.4492 H         1 5BN         0.2231
     38 H15        15.6520   -9.0718   15.6100 H         1 5BN         0.0472
     39 H16        17.0649   -7.4920   14.2842 H         1 5BN         0.0512
@<TRIPOS>BOND
     1    1    2 1  
     2    2    3 1  
     3    3    4 1  
     4    4    5 1  
     5    5    6 ar 
     6    5   22 ar 
     7    6    7 ar 
     8    7    8 1  
     9    7   13 ar 
    10    8    9 2  
    11    8   12 1  
    12    9   10 1  
    13   10   11 2  
    14   11   12 1  
    15   13   14 1  
    16   13   23 ar 
    17   14   15 2  
    18   14   16 am 
    19   16   17 1  
    20   17   18 ar 
    21   17   23 ar 
    22   18   19 ar 
    23   19   20 ar 
    24   20   21 1  
    25   20   22 ar 
    26   22   23 ar 
    27    1   24 1  
    28    1   25 1  
    29    1   26 1  
    30    2   27 1  
    31    2   28 1  
    32    3   29 1  
    33    3   30 1  
    34    4   31 1  
    35    6   32 1  
    36    9   33 1  
    37   10   34 1  
    38   11   35 1  
    39   12   36 1  
    40   16   37 1  
    41   18   38 1  
    42   19   39 1  
@<TRIPOS>SUBSTRUCTURE
     1 5BN         1

