### 
### Created by X-TOOL on Mon Sep 10 21:12:51 2018
### 

@<TRIPOS>MOLECULE
1p57_ligand
   32    34     1     0     0
SMALL
GAST_HUCK


@<TRIPOS>ATOM
      1 C1         16.3700   -6.1580   25.2670 C.ar      1 CR4         0.0108
      2 C2         15.4100   -5.1810   24.8180 C.ar      1 CR4        -0.0697
      3 C3         15.0090   -4.0920   25.6180 C.ar      1 CR4        -0.0400
      4 C4         15.5910   -4.0250   26.8490 C.ar      1 CR4         0.0805
      5 C5         16.4990   -4.9170   27.3080 C.ar      1 CR4         0.0294
      6 C6         16.9190   -5.9940   26.5610 C.ar      1 CR4        -0.0569
      7 C7         16.7520   -7.2370   24.4510 C.cat     1 CR4         0.2290
      8 N1         17.8350   -7.9110   24.6850 N.pl3     1 CR4        -0.2732
      9 N2         16.0360   -7.5980   23.4340 N.pl3     1 CR4        -0.2732
     10 N3         15.4260   -3.1650   27.7850 N.pl3     1 CR4        -0.2511
     11 N4         16.9240   -4.6450   28.5280 N.2       1 CR4        -0.3105
     12 C8         16.2160   -3.5530   28.7520 C.2       1 CR4         0.1364
     13 C1'        16.2960   -2.8690   29.9730 C.ar      1 CR4         0.0650
     14 C2'        17.2840   -3.1240   30.9470 C.ar      1 CR4        -0.0515
     15 C3'        17.2930   -2.4500   32.1550 C.ar      1 CR4        -0.0671
     16 C4'        16.3110   -1.4950   32.4270 C.ar      1 CR4        -0.0660
     17 C5'        15.3260   -1.2210   31.4800 C.ar      1 CR4        -0.0265
     18 C6'        15.3250   -1.9020   30.2670 C.ar      1 CR4         0.1093
     19 O6'        14.3680   -1.6370   29.3000 O.3       1 CR4        -0.3265
     20 H1         14.9805   -5.2877   23.8284 H         1 CR4         0.0541
     21 H2         14.2874   -3.3581   25.2778 H         1 CR4         0.0544
     22 H3         17.6478   -6.6949   26.9518 H         1 CR4         0.0548
     23 H4         18.0943   -8.6978   24.0730 H         1 CR4         0.3180
     24 H5         18.4359   -7.6595   25.4829 H         1 CR4         0.3180
     25 H6         15.1675   -7.0916   23.2099 H         1 CR4         0.3180
     26 H7         16.3350   -8.3915   22.8493 H         1 CR4         0.3180
     27 H8         14.8041   -2.3439   27.7771 H         1 CR4         0.2296
     28 H9         18.0512   -3.8626   30.7449 H         1 CR4         0.0635
     29 H10        18.0613   -2.6628   32.8895 H         1 CR4         0.0539
     30 H11        16.3149   -0.9673   33.3739 H         1 CR4         0.0625
     31 H12        14.5630   -0.4796   31.6879 H         1 CR4         0.0554
     32 H13        14.5213   -2.1915   28.5440 H         1 CR4         0.2519
@<TRIPOS>BOND
     1    1    2 ar 
     2    1    6 ar 
     3    1    7 1  
     4    2    3 ar 
     5    3    4 ar 
     6    4    5 ar 
     7    4   10 1  
     8    5    6 ar 
     9    5   11 1  
    10    7    8 ar 
    11    7    9 ar 
    12   10   12 1  
    13   11   12 2  
    14   12   13 1  
    15   13   14 ar 
    16   13   18 ar 
    17   14   15 ar 
    18   15   16 ar 
    19   16   17 ar 
    20   17   18 ar 
    21   18   19 1  
    22    2   20 1  
    23    3   21 1  
    24    6   22 1  
    25    8   23 1  
    26    8   24 1  
    27    9   25 1  
    28    9   26 1  
    29   10   27 1  
    30   14   28 1  
    31   15   29 1  
    32   16   30 1  
    33   17   31 1  
    34   19   32 1  
@<TRIPOS>SUBSTRUCTURE
     1 CR4         1

