### 
### Created by X-TOOL on Mon Sep 10 21:12:50 2018
### 

@<TRIPOS>MOLECULE
1p5e_ligand
   14    15     1     0     0
SMALL
GAST_HUCK


@<TRIPOS>ATOM
      1 C1          7.5360   44.8230   50.5680 C.ar      1 TBS         0.0275
      2 C2          8.5410   45.5200   51.1720 C.ar      1 TBS         0.0257
      3 C3          8.2050   46.4620   52.1060 C.ar      1 TBS         0.0388
      4 C4          6.2100   45.0570   50.8820 C.ar      1 TBS         0.0572
      5 N5          4.6190   46.4150   52.2920 N.pl3     1 TBS        -0.1696
      6 C6          5.8490   46.0040   51.8170 C.ar      1 TBS         0.1280
      7 C7          6.9050   46.7440   52.4640 C.ar      1 TBS         0.0924
      8 N8          6.3710   47.6480   53.3620 N.2       1 TBS        -0.1942
      9 N9          4.9620   47.4310   53.2410 N.2       1 TBS        -0.0729
     10 BR10        4.8580   44.0860   50.0300 Br        1 TBS        -0.0487
     11 BR11        8.0720   43.5450   49.3110 Br        1 TBS        -0.0475
     12 BR12       10.3490   45.1570   50.7170 Br        1 TBS        -0.0518
     13 BR13        9.5980   47.3860   52.9010 Br        1 TBS        -0.0454
     14 H1          3.6836   46.0740   52.0281 H         1 TBS         0.2604
@<TRIPOS>BOND
     1    1    2 ar 
     2    1    4 ar 
     3    1   11 1  
     4    2    3 ar 
     5    2   12 1  
     6    3    7 ar 
     7    3   13 1  
     8    4    6 ar 
     9    4   10 1  
    10    6    7 ar 
    11    7    8 1  
    12    8    9 2  
    13    9    5 1  
    14    6    5 1  
    15    5   14 1  
@<TRIPOS>SUBSTRUCTURE
     1 TBS         1

