### 
### Created by X-TOOL on Mon Sep 10 21:12:49 2018
### 

@<TRIPOS>MOLECULE
1p6e_ligand
   65    64     1     0     0
SMALL
GAST_HUCK


@<TRIPOS>ATOM
      1 C14        41.5130   21.3400   -4.8090 C.3       1 PC5        -0.0651
      2 C13        41.1310   22.6980   -4.1460 C.3       1 PC5        -0.0537
      3 C12        40.5620   22.5520   -2.7150 C.3       1 PC5        -0.0350
      4 C11        41.3530   23.5270   -1.8280 C.3       1 PC5         0.0487
      5 C10        41.0450   23.6920   -0.3220 C.2       1 PC5         0.2338
      6 O7         41.8350   24.4190    0.3230 O.2       1 PC5        -0.3704
      7 O6         39.8940   23.0260    0.4090 O.3       1 PC5        -0.2738
      8 C9         39.5420   22.9120    1.8490 C.3       1 PC5         0.1101
      9 C8         39.2150   24.2070    2.6180 C.3       1 PC5         0.1462
     10 O5         38.0140   24.7400    1.9900 O.3       1 PC5        -0.2679
     11 C15        37.9040   25.8290    0.9800 C.2       1 PC5         0.2341
     12 O8         38.7270   26.7760    1.0140 O.2       1 PC5        -0.3704
     13 C16        36.5150   26.0380    0.2940 C.3       1 PC5         0.0487
     14 C17        36.4540   25.9970   -1.2460 C.3       1 PC5        -0.0350
     15 C18        36.7440   24.5750   -1.7910 C.3       1 PC5        -0.0537
     16 C19        37.0630   24.5790   -3.3080 C.3       1 PC5        -0.0651
     17 C7         39.0260   24.2420    4.1780 C.3       1 PC5         0.1326
     18 O1         39.4480   23.1550    5.0690 O.3       1 PC5        -0.2211
     19 P1         40.9100   22.9500    5.8300 P.3       1 PC5         0.2313
     20 S2         41.9920   24.3750    6.1020 S.3       1 PC5        -0.0118
     21 S3         40.7560   21.9030    7.4600 S.2       1 PC5        -0.4465
     22 O4         41.4750   21.9360    4.6340 O.3       1 PC5        -0.2189
     23 C5         42.7790   21.9370    3.9290 C.3       1 PC5         0.1392
     24 C4         43.2030   20.5880    3.2400 C.3       1 PC5         0.0013
     25 N1         42.4160   19.8370    2.0870 N.4       1 PC5         0.2389
     26 C1         43.1230   18.5480    1.7160 C.3       1 PC5        -0.0417
     27 C2         40.9950   19.3930    2.4450 C.3       1 PC5        -0.0417
     28 C3         42.4610   20.5870    0.7590 C.3       1 PC5        -0.0417
     29 H1         41.9080   21.5234   -5.8191 H         1 PC5         0.0230
     30 H2         40.6206   20.7002   -4.8749 H         1 PC5         0.0230
     31 H3         42.2800   20.8380   -4.2010 H         1 PC5         0.0230
     32 H4         40.3725   23.1896   -4.7730 H         1 PC5         0.0264
     33 H5         42.0319   23.3274   -4.0991 H         1 PC5         0.0264
     34 H6         40.6943   21.5203   -2.3571 H         1 PC5         0.0291
     35 H7         39.4928   22.8100   -2.7032 H         1 PC5         0.0291
     36 H8         41.2312   24.5229   -2.2789 H         1 PC5         0.0518
     37 H9         42.4072   23.2202   -1.8957 H         1 PC5         0.0518
     38 H10        40.3934   22.4358    2.3573 H         1 PC5         0.0644
     39 H11        38.6603   22.2581    1.9196 H         1 PC5         0.0644
     40 H12        40.0504   24.8931    2.4148 H         1 PC5         0.0706
     41 H13        36.1391   27.0223    0.6100 H         1 PC5         0.0518
     42 H14        35.8436   25.2514    0.6688 H         1 PC5         0.0518
     43 H15        37.2020   26.6941   -1.6516 H         1 PC5         0.0291
     44 H16        35.4499   26.3062   -1.5719 H         1 PC5         0.0291
     45 H17        35.8608   23.9428   -1.6172 H         1 PC5         0.0264
     46 H18        37.6059   24.1578   -1.2496 H         1 PC5         0.0264
     47 H19        37.2605   23.5503   -3.6438 H         1 PC5         0.0230
     48 H20        37.9500   25.2022   -3.4946 H         1 PC5         0.0230
     49 H21        36.2049   24.9872   -3.8621 H         1 PC5         0.0230
     50 H22        37.9464   24.3677    4.3474 H         1 PC5         0.0687
     51 H23        39.5587   25.1395    4.5254 H         1 PC5         0.0687
     52 H24        41.6062   24.9540    6.8314 H         1 PC5         0.1337
     53 H25        43.5561   22.1964    4.6631 H         1 PC5         0.0710
     54 H26        42.7374   22.7121    3.1496 H         1 PC5         0.0710
     55 H27        43.2774   19.8580    4.0594 H         1 PC5         0.0844
     56 H28        44.2044   20.7789    2.8269 H         1 PC5         0.0844
     57 H29        42.5642   18.0406    0.9158 H         1 PC5         0.0778
     58 H30        43.1772   17.8926    2.5978 H         1 PC5         0.0778
     59 H31        44.1404   18.7757    1.3652 H         1 PC5         0.0778
     60 H32        40.3977   20.2712    2.7315 H         1 PC5         0.0778
     61 H33        41.0329   18.6852    3.2861 H         1 PC5         0.0778
     62 H34        40.5334   18.9038    1.5746 H         1 PC5         0.0778
     63 H35        43.4970   20.8862    0.5418 H         1 PC5         0.0778
     64 H36        41.8262   21.4831    0.8223 H         1 PC5         0.0778
     65 H37        42.0924   19.9324   -0.0445 H         1 PC5         0.0778
@<TRIPOS>BOND
     1    1    2 1  
     2    2    3 1  
     3    3    4 1  
     4    4    5 1  
     5    5    6 2  
     6    5    7 1  
     7    7    8 1  
     8    8    9 1  
     9    9   10 1  
    10    9   17 1  
    11   10   11 1  
    12   11   12 2  
    13   11   13 1  
    14   13   14 1  
    15   14   15 1  
    16   15   16 1  
    17   17   18 1  
    18   18   19 1  
    19   19   20 1  
    20   19   21 2  
    21   19   22 1  
    22   22   23 1  
    23   23   24 1  
    24   24   25 1  
    25   25   26 1  
    26   25   27 1  
    27   25   28 1  
    28    1   29 1  
    29    1   30 1  
    30    1   31 1  
    31    2   32 1  
    32    2   33 1  
    33    3   34 1  
    34    3   35 1  
    35    4   36 1  
    36    4   37 1  
    37    8   38 1  
    38    8   39 1  
    39    9   40 1  
    40   13   41 1  
    41   13   42 1  
    42   14   43 1  
    43   14   44 1  
    44   15   45 1  
    45   15   46 1  
    46   16   47 1  
    47   16   48 1  
    48   16   49 1  
    49   17   50 1  
    50   17   51 1  
    51   20   52 1  
    52   23   53 1  
    53   23   54 1  
    54   24   55 1  
    55   24   56 1  
    56   26   57 1  
    57   26   58 1  
    58   26   59 1  
    59   27   60 1  
    60   27   61 1  
    61   27   62 1  
    62   28   63 1  
    63   28   64 1  
    64   28   65 1  
@<TRIPOS>SUBSTRUCTURE
     1 PC5         1

