### 
### Created by X-TOOL on Mon Sep 10 21:12:51 2018
### 

@<TRIPOS>MOLECULE
1p7m_ligand
   19    20     1     0     0
SMALL
GAST_HUCK


@<TRIPOS>ATOM
      1 N9        139.8440   20.3960   -9.5280 N.2       1 ADK        -0.2435
      2 C4        140.5400   20.9730   -8.4890 C.ar      1 ADK         0.1817
      3 N3        140.6500   22.2820   -8.2200 N.ar      1 ADK        -0.2962
      4 C2        141.3810   22.5290   -7.1540 C.ar      1 ADK         0.1201
      5 N1        141.9740   21.6310   -6.3690 N.ar      1 ADK        -0.1740
      6 C6        141.8610   20.3160   -6.6420 C.ar      1 ADK         0.2669
      7 N6        142.4400   19.4310   -5.8310 N.pl3     1 ADK        -0.2573
      8 C5        141.0990   19.9480   -7.7640 C.ar      1 ADK         0.2549
      9 N7        140.7760   18.7150   -8.3270 N.pl3     1 ADK        -0.1959
     10 C8        140.0520   19.0680   -9.3340 C.2       1 ADK         0.1455
     11 C3A       140.0350   23.3470   -9.0280 C.3       1 ADK         0.0225
     12 H1        141.5144   23.5711   -6.8871 H         1 ADK         0.1368
     13 H2        142.3613   18.4231   -6.0283 H         1 ADK         0.2373
     14 H3        142.9662   19.7549   -5.0069 H         1 ADK         0.2373
     15 H4        141.0450   17.7695   -8.0195 H         1 ADK         0.2735
     16 H5        139.6221   18.3266  -10.0059 H         1 ADK         0.1497
     17 H6        139.4756   22.8979   -9.8619 H         1 ADK         0.0469
     18 H7        140.8210   24.0054   -9.4263 H         1 ADK         0.0469
     19 H8        139.3486   23.9338   -8.3999 H         1 ADK         0.0469
@<TRIPOS>BOND
     1    1    2 1  
     2    1   10 2  
     3    2    3 ar 
     4    2    8 ar 
     5    3    4 ar 
     6    3   11 1  
     7    4    5 ar 
     8    4   12 1  
     9    5    6 ar 
    10    6    7 1  
    11    6    8 ar 
    12    7   13 1  
    13    7   14 1  
    14    8    9 1  
    15    9   10 1  
    16    9   15 1  
    17   10   16 1  
    18   11   17 1  
    19   11   18 1  
    20   11   19 1  
@<TRIPOS>SUBSTRUCTURE
     1 ADK         1

