### 
### Created by X-TOOL on Mon Sep 10 21:12:51 2018
### 

@<TRIPOS>MOLECULE
1p93_ligand
   57    60     1     0     0
SMALL
GAST_HUCK


@<TRIPOS>ATOM
      1 C1         45.3620   11.6490    1.4280 C.2       1 DEX        -0.0937
      2 C2         44.5080   11.6060    2.5580 C.2       1 DEX         0.0360
      3 C3         43.2750   10.7160    2.5210 C.2       1 DEX         0.2468
      4 C4         43.0340    9.8980    1.2260 C.2       1 DEX         0.0346
      5 C5         43.8680    9.9340    0.1110 C.2       1 DEX        -0.0755
      6 C6         43.5710    9.0470   -1.2390 C.3       1 DEX        -0.0268
      7 C7         43.6360    9.9620   -2.5010 C.3       1 DEX        -0.0384
      8 C8         44.9910   10.8500   -2.6160 C.3       1 DEX        -0.0131
      9 C9         45.2330   11.7580   -1.3120 C.3       1 DEX         0.1042
     10 C10        45.1930   10.8430    0.0490 C.3       1 DEX        -0.0156
     11 C11        46.5450   12.6900   -1.4270 C.3       1 DEX         0.0761
     12 C12        46.5410   13.5010   -2.7560 C.3       1 DEX        -0.0180
     13 C13        46.2500   12.7010   -4.1270 C.3       1 DEX         0.0079
     14 C14        44.9760   11.7950   -3.9210 C.3       1 DEX        -0.0292
     15 C15        44.8000   11.1280   -5.3530 C.3       1 DEX        -0.0453
     16 C16        44.8440   12.3550   -6.2390 C.3       1 DEX        -0.0088
     17 C17        45.7500   13.4130   -5.4670 C.3       1 DEX         0.1387
     18 C18        47.6290   11.8760   -4.4420 C.3       1 DEX        -0.0576
     19 C19        46.4090    9.8030    0.0310 C.3       1 DEX        -0.1015
     20 C20        46.7980   14.1950   -6.3250 C.2       1 DEX         0.1842
     21 C21        47.6820   15.2200   -5.6550 C.3       1 DEX         0.1213
     22 C22        43.3910   12.8960   -6.5150 C.3       1 DEX        -0.0608
     23 F1         44.1630   12.5830   -1.1720 F         1 DEX        -0.2564
     24 O1         42.4370   10.6010    3.4880 O.2       1 DEX        -0.2667
     25 O2         47.7590   12.0980   -1.3080 O.3       1 DEX        -0.3901
     26 O3         45.0280   14.5770   -5.2180 O.3       1 DEX        -0.3849
     27 O4         46.8780   13.9440   -7.5680 O.2       1 DEX        -0.3272
     28 O5         48.5160   15.7820   -6.5820 O.3       1 DEX        -0.3762
     29 H1         46.2304   12.3018    1.5030 H         1 DEX         0.0522
     30 H2         44.7315   12.2024    3.4414 H         1 DEX         0.1206
     31 H3         42.1566    9.2542    1.1857 H         1 DEX         0.1051
     32 H4         42.5701    8.5965   -1.1665 H         1 DEX         0.0436
     33 H5         44.3258    8.2516   -1.3261 H         1 DEX         0.0436
     34 H6         42.7764   10.6478   -2.4735 H         1 DEX         0.0293
     35 H7         43.5667    9.3228   -3.3935 H         1 DEX         0.0293
     36 H8         45.8371   10.1531   -2.7078 H         1 DEX         0.0322
     37 H9         46.4709   13.4089   -0.5977 H         1 DEX         0.0610
     38 H10        47.5299   13.9724   -2.8553 H         1 DEX         0.0295
     39 H11        45.7709   14.2807   -2.6618 H         1 DEX         0.0295
     40 H12        44.1139   12.4609   -3.7683 H         1 DEX         0.0308
     41 H13        43.8390   10.5997   -5.4391 H         1 DEX         0.0270
     42 H14        45.6220   10.4335   -5.5808 H         1 DEX         0.0270
     43 H15        45.3123   12.1038   -7.2021 H         1 DEX         0.0311
     44 H16        47.9792   11.3829   -3.5232 H         1 DEX         0.0234
     45 H17        48.4001   12.5739   -4.8003 H         1 DEX         0.0234
     46 H18        47.4340   11.1170   -5.2140 H         1 DEX         0.0234
     47 H19        46.3809    9.1902    0.9441 H         1 DEX         0.0057
     48 H20        47.3609   10.3525   -0.0126 H         1 DEX         0.0057
     49 H21        46.3211    9.1513   -0.8508 H         1 DEX         0.0057
     50 H22        48.2808   14.7315   -4.8722 H         1 DEX         0.0785
     51 H23        47.0563   16.0035   -5.2027 H         1 DEX         0.0785
     52 H24        42.8095   12.1294   -7.0481 H         1 DEX         0.0232
     53 H25        43.4492   13.8059   -7.1304 H         1 DEX         0.0232
     54 H26        42.8993   13.1305   -5.5594 H         1 DEX         0.0232
     55 H27        48.4350   12.7652   -1.2902 H         1 DEX         0.2098
     56 H28        44.7436   14.9543   -6.0422 H         1 DEX         0.2077
     57 H29        49.0562   15.1049   -6.9721 H         1 DEX         0.2129
@<TRIPOS>BOND
     1    1    2 2  
     2    1   10 1  
     3    2    3 1  
     4    3    4 1  
     5    3   24 2  
     6    4    5 2  
     7    5    6 1  
     8    5   10 1  
     9    6    7 1  
    10    7    8 1  
    11    8    9 1  
    12    8   14 1  
    13    9   10 1  
    14    9   11 1  
    15    9   23 1  
    16   10   19 1  
    17   11   12 1  
    18   11   25 1  
    19   12   13 1  
    20   13   14 1  
    21   13   17 1  
    22   13   18 1  
    23   14   15 1  
    24   15   16 1  
    25   16   17 1  
    26   16   22 1  
    27   17   20 1  
    28   17   26 1  
    29   20   21 1  
    30   20   27 2  
    31   21   28 1  
    32    1   29 1  
    33    2   30 1  
    34    4   31 1  
    35    6   32 1  
    36    6   33 1  
    37    7   34 1  
    38    7   35 1  
    39    8   36 1  
    40   11   37 1  
    41   12   38 1  
    42   12   39 1  
    43   14   40 1  
    44   15   41 1  
    45   15   42 1  
    46   16   43 1  
    47   18   44 1  
    48   18   45 1  
    49   18   46 1  
    50   19   47 1  
    51   19   48 1  
    52   19   49 1  
    53   21   50 1  
    54   21   51 1  
    55   22   52 1  
    56   22   53 1  
    57   22   54 1  
    58   25   55 1  
    59   26   56 1  
    60   28   57 1  
@<TRIPOS>SUBSTRUCTURE
     1 DEX         1

