### 
### Created by X-TOOL on Mon Sep 10 21:12:50 2018
### 

@<TRIPOS>MOLECULE
1pa9_ligand
   19    19     1     0     0
SMALL
GAST_HUCK


@<TRIPOS>ATOM
      1 S1          5.8190   -8.5760   73.6040 S.o2      1 CSN         0.0087
      2 O4          4.3710   -8.8450   72.7660 O.3       1 CSN        -0.0336
      3 O3          5.4890   -8.1310   74.9110 O.co2     1 CSN        -0.4490
      4 O2          6.5190   -7.5680   72.8330 O.co2     1 CSN        -0.4490
      5 O1          6.5660   -9.8050   73.6820 O.co2     1 CSN        -0.4490
      6 O7          2.4450   -8.3330   74.7440 O.3       1 CSN        -0.1808
      7 O6          2.2260  -14.4920   72.6860 O.2       1 CSN        -0.4541
      8 O5          3.8230  -13.6900   71.5050 O.2       1 CSN        -0.4541
      9 C6          3.6980  -11.0680   72.5860 C.ar      1 CSN         0.1680
     10 N1          2.9630  -13.5210   72.3650 N.2       1 CSN        -0.1414
     11 C3          1.6220  -10.6910   74.6550 C.ar      1 CSN         0.1386
     12 C1          3.5100   -9.7340   73.2490 C.ar      1 CSN         0.4067
     13 C4          1.7890  -11.9930   74.0240 C.ar      1 CSN         0.0958
     14 C2          2.4610   -9.5690   74.2840 C.ar      1 CSN         0.3743
     15 C5          2.8270  -12.2100   72.9780 C.ar      1 CSN         0.2115
     16 H1          3.1174   -7.8245   74.3059 H         1 CSN         0.3517
     17 H2          4.4618  -11.1985   71.8280 H         1 CSN         0.1054
     18 H3          0.8588  -10.5592   75.4134 H         1 CSN         0.0996
     19 H4          1.1486  -12.8161   74.3199 H         1 CSN         0.1507
@<TRIPOS>BOND
     1    2    1 1  
     2    1    3 ar 
     3    1    4 ar 
     4    1    5 ar 
     5   12    2 1  
     6   10    7 2  
     7   14   12 ar 
     8   13   15 ar 
     9   15   10 1  
    10   15    9 ar 
    11   11   14 ar 
    12   14    6 1  
    13   11   13 ar 
    14   12    9 ar 
    15   10    8 2  
    16    6   16 1  
    17    9   17 1  
    18   11   18 1  
    19   13   19 1  
@<TRIPOS>SUBSTRUCTURE
     1 CSN         1

