### 
### Created by X-TOOL on Mon Sep 10 21:12:46 2018
### 

@<TRIPOS>MOLECULE
1pau_ligand
   64    63     1     0     0
SMALL
GAST_HUCK


@<TRIPOS>ATOM
      1 C          41.7980   98.3890   26.8380 C.2       1 ACE         0.1752
      2 O          40.5880   98.4010   26.6070 O.2       1 ACE        -0.3972
      3 CH3        42.3080   98.5960   28.2510 C.3       1 ACE         0.0258
      4 N          42.7160   98.1890   25.9010 N.am      1 ASP        -0.2643
      5 CA         42.3630   97.9900   24.5040 C.3       1 ASP         0.1422
      6 C          41.8710   96.5740   24.2070 C.2       1 ASP         0.2056
      7 O          42.4600   95.5900   24.6730 O.2       1 ASP        -0.3943
      8 CB         43.5540   98.3380   23.6060 C.3       1 ASP         0.0406
      9 CG         43.9000   99.8220   23.6320 C.2       1 ASP         0.0393
     10 OD1        43.0170  100.6550   23.9260 O.co2     1 ASP        -0.5688
     11 OD2        45.0610  100.1610   23.3410 O.co2     1 ASP        -0.5688
     12 N          40.8040   96.4900   23.4150 N.am      1 GLU        -0.2635
     13 CA         40.1920   95.2280   23.0130 C.3       1 GLU         0.1325
     14 C          39.7660   95.3490   21.5530 C.2       1 GLU         0.2040
     15 O          39.6060   96.4590   21.0530 O.2       1 GLU        -0.3944
     16 CB         38.9780   94.9250   23.8920 C.3       1 GLU        -0.0008
     17 CG         39.3260   94.6850   25.3530 C.3       1 GLU         0.0044
     18 CD         38.1240   94.3360   26.2100 C.2       1 GLU         0.0350
     19 OE1        37.2110   93.6300   25.7320 O.co2     1 GLU        -0.5690
     20 OE2        38.1000   94.7580   27.3810 O.co2     1 GLU        -0.5690
     21 N          39.5800   94.2180   20.8750 N.am      1 VAL        -0.2635
     22 CA         39.1860   94.2150   19.4640 C.3       1 VAL         0.1331
     23 C          37.7060   93.8930   19.2350 C.2       1 VAL         0.2023
     24 O          37.0550   93.3210   20.1050 O.2       1 VAL        -0.3945
     25 CB         40.0460   93.2320   18.6560 C.3       1 VAL        -0.0063
     26 CG1        41.4810   93.7320   18.5650 C.3       1 VAL        -0.0584
     27 CG2        40.0030   91.8520   19.2950 C.3       1 VAL        -0.0584
     28 N          37.1930   94.2630   18.0610 N.am      1 ASJ        -0.2781
     29 CA         35.7910   94.0450   17.6710 C.3       1 ASJ         0.0764
     30 C          35.6730   93.2430   16.3870 C.3       1 ASJ         0.0687
     31 O          35.3140   91.8900   16.7020 O.3       1 ASJ        -0.3926
     32 CB         35.0860   95.3760   17.4430 C.3       1 ASJ         0.0254
     33 CG         34.3850   95.8750   18.6600 C.2       1 ASJ         0.0371
     34 OD1        34.0670   95.0600   19.5500 O.co2     1 ASJ        -0.5689
     35 OD2        34.1280   97.0890   18.7140 O.co2     1 ASJ        -0.5689
     36 H1         43.4071   98.5518   28.2542 H         1 ACE         0.0467
     37 H2         41.9074   97.8072   28.9047 H         1 ACE         0.0467
     38 H3         41.9795   99.5792   28.6191 H         1 ACE         0.0467
     39 H4         43.6808   98.1746   26.1635 H         1 ASP         0.1884
     40 H5         41.5420   98.6826   24.2670 H         1 ASP         0.0819
     41 H6         43.3099   98.0522   22.5722 H         1 ASP         0.0478
     42 H7         44.4300   97.7670   23.9472 H         1 ASP         0.0478
     43 H8         40.3993   97.3396   23.0767 H         1 GLU         0.1883
     44 H9         40.9248   94.4142   23.1167 H         1 GLU         0.0801
     45 H10        38.4819   94.0246   23.5007 H         1 GLU         0.0330
     46 H11        38.2865   95.7786   23.8354 H         1 GLU         0.0330
     47 H12        39.7878   95.5984   25.7559 H         1 GLU         0.0433
     48 H13        40.0459   93.8552   25.4080 H         1 GLU         0.0433
     49 H14        39.7133   93.3444   21.3431 H         1 VAL         0.1883
     50 H15        39.3681   95.2275   19.0745 H         1 VAL         0.0802
     51 H16        39.6352   93.1605   17.6381 H         1 VAL         0.0343
     52 H17        42.0822   93.0172   17.9839 H         1 VAL         0.0234
     53 H18        41.9012   93.8268   19.5771 H         1 VAL         0.0234
     54 H19        41.4966   94.7132   18.0681 H         1 VAL         0.0234
     55 H20        38.9601   91.5070   19.3526 H         1 VAL         0.0234
     56 H21        40.4286   91.9035   20.3080 H         1 VAL         0.0234
     57 H22        40.5891   91.1477   18.6864 H         1 VAL         0.0234
     58 H23        37.7977   94.7161   17.4060 H         1 ASJ         0.1857
     59 H24        35.2859   93.4997   18.4819 H         1 ASJ         0.0597
     60 H25        36.6373   93.2532   15.8579 H         1 ASJ         0.0581
     61 H26        34.8982   93.6885   15.7458 H         1 ASJ         0.0581
     62 H27        35.2401   91.3880   15.8989 H         1 ASJ         0.2095
     63 H28        34.3462   95.2486   16.6390 H         1 ASJ         0.0454
     64 H29        35.8343   96.1222   17.1379 H         1 ASJ         0.0454
@<TRIPOS>BOND
     1    1    2 2  
     2    1    3 1  
     3    1    4 am 
     4    4    5 1  
     5    5    6 1  
     6    5    8 1  
     7    6    7 2  
     8    6   12 am 
     9    8    9 1  
    10    9   10 ar 
    11    9   11 ar 
    12   12   13 1  
    13   13   14 1  
    14   13   16 1  
    15   14   15 2  
    16   14   21 am 
    17   16   17 1  
    18   17   18 1  
    19   18   19 ar 
    20   18   20 ar 
    21   21   22 1  
    22   22   23 1  
    23   22   25 1  
    24   23   24 2  
    25   23   28 am 
    26   25   26 1  
    27   25   27 1  
    28   28   29 1  
    29   29   30 1  
    30   29   32 1  
    31   30   31 1  
    32   32   33 1  
    33   33   34 ar 
    34   33   35 ar 
    35    3   36 1  
    36    3   37 1  
    37    3   38 1  
    38    4   39 1  
    39    5   40 1  
    40    8   41 1  
    41    8   42 1  
    42   12   43 1  
    43   13   44 1  
    44   16   45 1  
    45   16   46 1  
    46   17   47 1  
    47   17   48 1  
    48   21   49 1  
    49   22   50 1  
    50   25   51 1  
    51   26   52 1  
    52   26   53 1  
    53   26   54 1  
    54   27   55 1  
    55   27   56 1  
    56   27   57 1  
    57   28   58 1  
    58   29   59 1  
    59   30   60 1  
    60   30   61 1  
    61   31   62 1  
    62   32   63 1  
    63   32   64 1  
@<TRIPOS>SUBSTRUCTURE
     1 ACE         1

