### 
### Created by X-TOOL on Mon Sep 10 21:12:50 2018
### 

@<TRIPOS>MOLECULE
1pb8_ligand
   14    13     1     0     0
SMALL
GAST_HUCK


@<TRIPOS>ATOM
      1 N          21.1060   41.7630   40.4690 N.4       1 DSN         0.2343
      2 CA         21.2850   40.3230   40.1650 C.3       1 DSN         0.0519
      3 C          22.6950   40.0630   39.5830 C.2       1 DSN         0.0867
      4 O          22.9860   38.8950   39.3030 O.co2     1 DSN        -0.5642
      5 OXT        23.4230   41.0790   39.4360 O.co2     1 DSN        -0.5642
      6 CB         20.9860   39.4720   41.3850 C.3       1 DSN         0.0987
      7 OG         21.7150   39.8780   42.5080 O.3       1 DSN        -0.3876
      8 H1         20.1838   41.9145   40.8466 H         1 DSN         0.2011
      9 H2         21.2155   42.3010   39.6237 H         1 DSN         0.2011
     10 H3         21.7969   42.0525   41.1434 H         1 DSN         0.2011
     11 H4         20.5543   40.0506   39.3893 H         1 DSN         0.1047
     12 H5         21.2402   38.4262   41.1576 H         1 DSN         0.0633
     13 H6         19.9128   39.5470   41.6141 H         1 DSN         0.0633
     14 H7         22.6443   39.8105   42.3223 H         1 DSN         0.2098
@<TRIPOS>BOND
     1    1    2 1  
     2    2    3 1  
     3    2    6 1  
     4    3    4 ar 
     5    3    5 ar 
     6    6    7 1  
     7    1    8 1  
     8    1    9 1  
     9    1   10 1  
    10    2   11 1  
    11    6   12 1  
    12    6   13 1  
    13    7   14 1  
@<TRIPOS>SUBSTRUCTURE
     1 DSN         1

