### 
### Created by X-TOOL on Mon Sep 10 21:12:50 2018
### 

@<TRIPOS>MOLECULE
1pb9_ligand
   14    14     1     0     0
SMALL
GAST_HUCK


@<TRIPOS>ATOM
      1 OG         23.4730   41.0430   39.0280 O.2       1 4AX        -0.3906
      2 O          21.9920   38.2960   40.5140 O.3       1 4AX        -0.2482
      3 N          21.3880   41.8590   40.7910 N.4       1 4AX         0.2396
      4 NXT        23.0850   38.9310   39.7790 N.am      1 4AX        -0.1562
      5 CA         21.4040   40.4890   40.2300 C.3       1 4AX         0.0932
      6 CB         21.3000   39.3640   41.2040 C.3       1 4AX         0.1388
      7 C3         22.7620   40.1770   39.6190 C.2       1 4AX         0.2498
      8 H1         20.4821   42.0478   41.1907 H         1 4AX         0.2016
      9 H2         21.5770   42.5245   40.0579 H         1 4AX         0.2016
     10 H3         22.0938   41.9375   41.5063 H         1 4AX         0.2016
     11 H4         23.9230   38.4884   39.4600 H         1 4AX         0.2221
     12 H5         20.6006   40.4173   39.4820 H         1 4AX         0.1122
     13 H6         21.7960   39.6120   42.1540 H         1 4AX         0.0674
     14 H7         20.2499   39.0994   41.3968 H         1 4AX         0.0674
@<TRIPOS>BOND
     1    7    1 2  
     2    4    2 1  
     3    2    6 1  
     4    7    4 am 
     5    7    5 1  
     6    6    5 1  
     7    5    3 1  
     8    3    8 1  
     9    3    9 1  
    10    3   10 1  
    11    4   11 1  
    12    5   12 1  
    13    6   13 1  
    14    6   14 1  
@<TRIPOS>SUBSTRUCTURE
     1 4AX         1

