### 
### Created by X-TOOL on Mon Sep 10 21:12:50 2018
### 

@<TRIPOS>MOLECULE
1pbq_ligand
   20    21     1     0     0
SMALL
GAST_HUCK


@<TRIPOS>ATOM
      1 O1          6.3810   34.7180  -19.5990 O.co2     1 DK1        -0.5559
      2 C2          6.9650   34.9610  -18.5750 C.2       1 DK1         0.0792
      3 O2          7.9540   34.2680  -18.0960 O.co2     1 DK1        -0.5559
      4 C1          6.5880   36.1440  -17.7170 C.ar      1 DK1         0.0656
      5 N1          5.5390   36.8930  -18.2050 N.ar      1 DK1        -0.3014
      6 C10         5.0630   38.0240  -17.5460 C.ar      1 DK1         0.0395
      7 C9          3.9620   38.7370  -18.1320 C.ar      1 DK1        -0.0294
      8 C8          3.5000   39.8680  -17.4640 C.ar      1 DK1         0.0448
      9 CL2         2.1810   40.7420  -18.1170 Cl        1 DK1        -0.0670
     10 C7          4.0750   40.3260  -16.2660 C.ar      1 DK1        -0.0297
     11 C6          5.1330   39.6350  -15.7070 C.ar      1 DK1         0.0585
     12 CL1         5.7330   40.3200  -14.2550 Cl        1 DK1        -0.0648
     13 C5          5.6880   38.4370  -16.3070 C.ar      1 DK1         0.0569
     14 C4          6.8160   37.6290  -15.7600 C.ar      1 DK1         0.1237
     15 O3          7.4080   37.8950  -14.6970 O.3       1 DK1        -0.3159
     16 C3          7.2160   36.4730  -16.5420 C.ar      1 DK1         0.0078
     17 H1          3.5080   38.4069  -19.0593 H         1 DK1         0.0630
     18 H2          3.6903   41.2169  -15.7830 H         1 DK1         0.0631
     19 H3          8.0883   37.2497  -14.5447 H         1 DK1         0.2576
     20 H4          8.0322   35.8535  -16.1884 H         1 DK1         0.0602
@<TRIPOS>BOND
     1    1    2 ar 
     2    2    3 ar 
     3    2    4 1  
     4    4    5 ar 
     5    4   16 ar 
     6    5    6 ar 
     7    6    7 ar 
     8    6   13 ar 
     9    7    8 ar 
    10    8    9 1  
    11    8   10 ar 
    12   10   11 ar 
    13   11   12 1  
    14   11   13 ar 
    15   13   14 ar 
    16   14   15 1  
    17   14   16 ar 
    18    7   17 1  
    19   10   18 1  
    20   15   19 1  
    21   16   20 1  
@<TRIPOS>SUBSTRUCTURE
     1 DK1         1

