### 
### Created by X-TOOL on Mon Sep 10 21:12:51 2018
### 

@<TRIPOS>MOLECULE
1pf7_ligand
   34    36     1     0     0
SMALL
GAST_HUCK


@<TRIPOS>ATOM
      1 O5         50.7250   49.1780   30.2700 O.3       1 IMH        -0.3894
      2 C5         49.9610   48.4690   31.2770 C.3       1 IMH         0.0894
      3 C4         50.4620   47.0280   31.5790 C.3       1 IMH         0.0313
      4 N4         50.5330   46.4580   30.2090 N.4       1 IMH         0.2435
      5 C3         51.9050   46.8660   32.1680 C.3       1 IMH         0.1317
      6 O3         51.9490   46.0500   33.4030 O.3       1 IMH        -0.3832
      7 C2         52.8020   46.2210   31.0060 C.3       1 IMH         0.1327
      8 O2         53.4170   44.9330   31.3720 O.3       1 IMH        -0.3821
      9 C1         51.8770   46.0030   29.8050 C.3       1 IMH         0.0244
     10 C9         52.2990   46.8140   28.4380 C.2       1 IMH         0.0057
     11 C8         51.4230   47.4420   27.6030 C.2       1 IMH         0.0223
     12 N7         52.1450   48.0550   26.5000 N.pl3     1 IMH        -0.2895
     13 C5         53.5140   47.7290   26.7660 C.2       1 IMH         0.1348
     14 C6         54.6950   48.1150   25.9440 C.2       1 IMH         0.2413
     15 O6         54.7180   48.7860   24.8860 O.2       1 IMH        -0.4013
     16 N1         55.8760   47.6050   26.5400 N.am      1 IMH        -0.2067
     17 C2         55.9600   46.8450   27.7290 C.2       1 IMH         0.1146
     18 N3         54.8430   46.5420   28.4090 N.2       1 IMH        -0.3199
     19 C4         53.6470   46.9970   27.9030 C.2       1 IMH         0.0184
     20 H1         50.3559   50.0446   30.1460 H         1 IMH         0.2097
     21 H2         48.9182   48.4039   30.9330 H         1 IMH         0.0614
     22 H3         50.0036   49.0490   32.2107 H         1 IMH         0.0614
     23 H4         49.7423   46.5027   32.2241 H         1 IMH         0.0900
     24 H5         50.2310   47.1654   29.5575 H         1 IMH         0.2029
     25 H6         49.9067   45.6696   30.1631 H         1 IMH         0.2029
     26 H7         52.2986   47.8636   32.4129 H         1 IMH         0.0680
     27 H8         51.4122   46.4597   34.0712 H         1 IMH         0.2102
     28 H9         53.6024   46.9271   30.7399 H         1 IMH         0.0693
     29 H10        53.9799   45.0554   32.1274 H         1 IMH         0.2103
     30 H11        51.8546   44.9278   29.5740 H         1 IMH         0.0961
     31 H12        50.3435   47.4789   27.7416 H         1 IMH         0.0779
     32 H13        51.7619   48.5966   25.7121 H         1 IMH         0.2273
     33 H14        56.7371   47.8030   26.0717 H         1 IMH         0.2519
     34 H15        56.9289   46.5060   28.0926 H         1 IMH         0.1426
@<TRIPOS>BOND
     1    1    2 1  
     2    2    3 1  
     3    3    4 1  
     4    3    5 1  
     5    4    9 1  
     6    5    6 1  
     7    5    7 1  
     8    7    8 1  
     9    7    9 1  
    10    9   10 1  
    11   10   11 2  
    12   10   19 1  
    13   11   12 1  
    14   12   13 1  
    15   13   14 1  
    16   13   19 2  
    17   14   15 2  
    18   14   16 am 
    19   16   17 am 
    20   17   18 2  
    21   18   19 1  
    22    1   20 1  
    23    2   21 1  
    24    2   22 1  
    25    3   23 1  
    26    4   24 1  
    27    4   25 1  
    28    5   26 1  
    29    6   27 1  
    30    7   28 1  
    31    8   29 1  
    32    9   30 1  
    33   11   31 1  
    34   12   32 1  
    35   16   33 1  
    36   17   34 1  
@<TRIPOS>SUBSTRUCTURE
     1 IMH         1

