### 
### Created by X-TOOL on Mon Sep 10 21:12:50 2018
### 

@<TRIPOS>MOLECULE
1pf8_ligand
   29    31     1     0     0
SMALL
GAST_HUCK


@<TRIPOS>ATOM
      1 N5'         3.9010   30.3180    7.2150 N.pl3     1 SU9        -0.2542
      2 C4'         5.0560   29.6930    6.6410 C.2       1 SU9         0.1043
      3 N3'         5.1700   28.2990    7.2690 N.2       1 SU9        -0.3103
      4 C2'         4.1160   28.2410    8.3880 C.2       1 SU9         0.0015
      5 C1'         3.2290   29.4650    8.1890 C.2       1 SU9         0.0833
      6 C6'         2.3110   29.6900    8.8500 C.2       1 SU9        -0.0163
      7 C9          1.5050   30.8550    8.6340 C.2       1 SU9         0.0448
      8 C8          1.6200   31.9830    7.7530 C.2       1 SU9         0.2184
      9 O10         2.4970   32.1600    6.9410 O.2       1 SU9        -0.3795
     10 N7          0.6670   32.8760    7.8810 N.am      1 SU9        -0.2424
     11 C5         -0.1540   32.3890    8.8880 C.ar      1 SU9         0.0604
     12 C6         -1.3500   32.9570    9.4550 C.ar      1 SU9        -0.0499
     13 C1         -2.0130   32.2650   10.4960 C.ar      1 SU9        -0.0474
     14 C2         -1.5600   31.0620   10.9950 C.ar      1 SU9         0.0731
     15 O11        -2.1500   30.4340   11.9360 O.3       1 SU9        -0.3315
     16 C12        -1.7770   29.3650   12.4060 C.3       1 SU9         0.0560
     17 C3         -0.2420   30.4020   10.3910 C.ar      1 SU9        -0.0427
     18 C4          0.3260   31.1690    9.3710 C.ar      1 SU9        -0.0055
     19 H1          3.5808   31.2650    6.9671 H         1 SU9         0.2385
     20 H2          5.7256   30.1261    5.8994 H         1 SU9         0.1296
     21 H3          4.0226   27.4817    9.1630 H         1 SU9         0.0596
     22 H4          2.0515   29.0033    9.6544 H         1 SU9         0.0724
     23 H5          0.5563   33.7248    7.3640 H         1 SU9         0.2215
     24 H6         -1.7368   33.9013    9.0894 H         1 SU9         0.0476
     25 H7         -2.9128   32.6978   10.9180 H         1 SU9         0.0496
     26 H8         -2.4694   29.0528   13.2017 H         1 SU9         0.0571
     27 H9         -0.7662   29.4810   12.8242 H         1 SU9         0.0571
     28 H10        -1.7608   28.6019   11.6139 H         1 SU9         0.0571
     29 H11         0.1695   29.4597   10.7343 H         1 SU9         0.0475
@<TRIPOS>BOND
     1    1    2 1  
     2    1    5 1  
     3    2    3 2  
     4    3    4 1  
     5    4    5 2  
     6    5    6 1  
     7    6    7 2  
     8    7    8 1  
     9    7   18 1  
    10    8    9 2  
    11    8   10 am 
    12   10   11 1  
    13   11   12 ar 
    14   11   18 ar 
    15   12   13 ar 
    16   13   14 ar 
    17   14   15 1  
    18   14   17 ar 
    19   15   16 1  
    20   17   18 ar 
    21    1   19 1  
    22    2   20 1  
    23    4   21 1  
    24    6   22 1  
    25   10   23 1  
    26   12   24 1  
    27   13   25 1  
    28   16   26 1  
    29   16   27 1  
    30   16   28 1  
    31   17   29 1  
@<TRIPOS>SUBSTRUCTURE
     1 SU9         1

