### 
### Created by X-TOOL on Mon Sep 10 21:12:51 2018
### 

@<TRIPOS>MOLECULE
1pfy_ligand
   55    57     1     0     0
SMALL
GAST_HUCK


@<TRIPOS>ATOM
      1 N2         14.5910    9.0130   19.4400 N.4       1 MSP         0.2380
      2 CA         14.2100   10.3800   19.8280 C.3       1 MSP         0.0673
      3 CB         12.7120   10.5500   20.1730 C.3       1 MSP         0.0169
      4 CG         11.7250    9.9970   19.1310 C.3       1 MSP         0.0007
      5 SD         10.0470   10.3030   19.7020 S.3       1 MSP        -0.1638
      6 CE          9.1100    9.7460   18.2620 C.3       1 MSP        -0.0181
      7 C9         15.0490   10.7980   21.0490 C.2       1 MSP         0.2460
      8 N8         15.6200    9.7380   21.6860 N.am      1 MSP        -0.1294
      9 S1         16.4990   10.0520   23.0040 S.o2      1 MSP         0.1859
     10 O1S        16.7810    8.7150   23.4640 O.2       1 MSP        -0.1218
     11 O2S        17.6150   10.8830   22.6730 O.2       1 MSP        -0.1218
     12 O12        15.5980   10.7810   24.0710 O.3       1 MSP        -0.2161
     13 C13        14.4220   10.1500   24.5900 C.3       1 MSP         0.1073
     14 C14        13.7550   11.1010   25.5890 C.3       1 MSP         0.1161
     15 O15        14.6540   11.2180   26.6800 O.3       1 MSP        -0.3367
     16 C16        13.5760   12.5240   25.0160 C.3       1 MSP         0.1146
     17 O17        12.2070   12.8910   25.1750 O.3       1 MSP        -0.3864
     18 C18        14.5120   13.3740   25.8620 C.3       1 MSP         0.1385
     19 O19        14.0200   14.6940   25.9940 O.3       1 MSP        -0.3836
     20 C20        14.6640   12.5580   27.1470 C.3       1 MSP         0.2010
     21 N9         15.9490   12.8460   27.8080 N.pl3     1 MSP        -0.1919
     22 C8         17.2180   12.5980   27.3900 C.2       1 MSP         0.1123
     23 N7         18.1640   13.0080   28.2590 N.2       1 MSP        -0.2958
     24 C5         17.4700   13.5720   29.3120 C.ar      1 MSP         0.1045
     25 C6         17.8080   14.1680   30.5080 C.ar      1 MSP         0.1298
     26 N6         19.0920   14.3220   30.8670 N.pl3     1 MSP        -0.3152
     27 N1         16.8550   14.6330   31.3590 N.ar      1 MSP        -0.2698
     28 C2         15.5410   14.5040   31.0370 C.ar      1 MSP         0.0533
     29 N3         15.1130   13.9280   29.8850 N.ar      1 MSP        -0.2714
     30 C4         16.0780   13.4710   29.0340 C.ar      1 MSP         0.1613
     31 O1         15.0680   11.9840   21.3560 O.2       1 MSP        -0.3891
     32 H1         14.0480    8.7270   18.6404 H         1 MSP         0.2015
     33 H2         14.4149    8.3843   20.2080 H         1 MSP         0.2015
     34 H3         15.5711    8.9910   19.2057 H         1 MSP         0.2015
     35 H4         14.4421   11.0488   18.9861 H         1 MSP         0.1099
     36 H5         12.5117   11.6250   20.2922 H         1 MSP         0.0354
     37 H6         12.5231   10.0339   21.1258 H         1 MSP         0.0354
     38 H7         11.8827    8.9151   19.0101 H         1 MSP         0.0380
     39 H8         11.8849   10.5010   18.1664 H         1 MSP         0.0380
     40 H9          8.0341    9.8702   18.4542 H         1 MSP         0.0340
     41 H10         9.3281    8.6850   18.0706 H         1 MSP         0.0340
     42 H11         9.3970   10.3435   17.3842 H         1 MSP         0.0340
     43 H12        15.4998    8.8034   21.3512 H         1 MSP         0.2167
     44 H13        14.6975    9.2138   25.0975 H         1 MSP         0.0611
     45 H14        13.7260    9.9300   23.7671 H         1 MSP         0.0611
     46 H15        12.7837   10.6962   25.9095 H         1 MSP         0.0648
     47 H16        13.8571   12.5741   23.9537 H         1 MSP         0.0648
     48 H17        11.9815   12.8765   26.0978 H         1 MSP         0.2100
     49 H18        15.4952   13.4433   25.3736 H         1 MSP         0.0676
     50 H19        13.9430   15.0896   25.1337 H         1 MSP         0.2101
     51 H20        13.8332   12.7497   27.8420 H         1 MSP         0.0996
     52 H21        17.4492   12.1137   26.4424 H         1 MSP         0.1349
     53 H22        19.3256   14.7698   31.7647 H         1 MSP         0.1820
     54 H23        19.8438   13.9924   30.2448 H         1 MSP         0.1820
     55 H24        14.7996   14.8789   31.7333 H         1 MSP         0.0996
@<TRIPOS>BOND
     1    1    2 1  
     2    2    3 1  
     3    2    7 1  
     4    3    4 1  
     5    4    5 1  
     6    5    6 1  
     7    7    8 am 
     8    7   31 2  
     9    8    9 am 
    10    9   10 2  
    11    9   11 2  
    12    9   12 1  
    13   12   13 1  
    14   13   14 1  
    15   14   15 1  
    16   14   16 1  
    17   15   20 1  
    18   16   17 1  
    19   16   18 1  
    20   18   19 1  
    21   18   20 1  
    22   20   21 1  
    23   21   22 1  
    24   21   30 1  
    25   22   23 2  
    26   23   24 1  
    27   24   25 ar 
    28   24   30 ar 
    29   25   26 1  
    30   25   27 ar 
    31   27   28 ar 
    32   28   29 ar 
    33   29   30 ar 
    34    1   32 1  
    35    1   33 1  
    36    1   34 1  
    37    2   35 1  
    38    3   36 1  
    39    3   37 1  
    40    4   38 1  
    41    4   39 1  
    42    6   40 1  
    43    6   41 1  
    44    6   42 1  
    45    8   43 1  
    46   13   44 1  
    47   13   45 1  
    48   14   46 1  
    49   16   47 1  
    50   17   48 1  
    51   18   49 1  
    52   19   50 1  
    53   20   51 1  
    54   22   52 1  
    55   26   53 1  
    56   26   54 1  
    57   28   55 1  
@<TRIPOS>SUBSTRUCTURE
     1 MSP         1

