### 
### Created by X-TOOL on Mon Sep 10 21:12:51 2018
### 

@<TRIPOS>MOLECULE
1pg2_ligand
   20    19     1     0     0
SMALL
GAST_HUCK


@<TRIPOS>ATOM
      1 N          13.2010   10.1560   19.8510 N.4       1 MET         0.2327
      2 CA         12.7720   11.5570   19.9390 C.3       1 MET         0.0291
      3 C          13.6870   12.3250   20.9280 C.2       1 MET         0.0844
      4 O          14.5240   11.4370   21.6040 O.co2     1 MET        -0.5643
      5 CB         11.2970   11.6440   20.3990 C.3       1 MET         0.0114
      6 CG         10.3190   10.9700   19.4680 C.3       1 MET         0.0001
      7 SD          8.6470   11.1370   20.0780 S.3       1 MET        -0.1638
      8 CE          7.6920   10.3120   18.7900 C.3       1 MET        -0.0181
      9 OXT        13.7000   13.4160   21.0790 O.co2     1 MET        -0.5643
     10 H1         12.6034    9.6614   19.2073 H         1 MET         0.2010
     11 H2         13.1407    9.7283   20.7617 H         1 MET         0.2010
     12 H3         14.1535   10.1162   19.5235 H         1 MET         0.2010
     13 H4         12.8589   12.0173   18.9438 H         1 MET         0.1024
     14 H5         11.0222   12.7062   20.4782 H         1 MET         0.0347
     15 H6         11.2153   11.1694   21.3879 H         1 MET         0.0347
     16 H7         10.5705    9.9018   19.3920 H         1 MET         0.0379
     17 H8         10.3884   11.4348   18.4734 H         1 MET         0.0379
     18 H9          6.6232   10.3447   19.0482 H         1 MET         0.0340
     19 H10         8.0171    9.2645   18.7065 H         1 MET         0.0340
     20 H11         7.8529   10.8236   17.8296 H         1 MET         0.0340
@<TRIPOS>BOND
     1    1    2 1  
     2    2    3 1  
     3    2    5 1  
     4    3    4 ar 
     5    3    9 ar 
     6    5    6 1  
     7    6    7 1  
     8    7    8 1  
     9    1   10 1  
    10    1   11 1  
    11    1   12 1  
    12    2   13 1  
    13    5   14 1  
    14    5   15 1  
    15    6   16 1  
    16    6   17 1  
    17    8   18 1  
    18    8   19 1  
    19    8   20 1  
@<TRIPOS>SUBSTRUCTURE
     1 MET         1

