### 
### Created by X-TOOL on Mon Sep 10 21:12:50 2018
### 

@<TRIPOS>MOLECULE
1ph0_ligand
   74    76     1     0     0
SMALL
GAST_HUCK


@<TRIPOS>ATOM
      1 O6         35.7330   29.8910   23.4000 O.co2     1 418        -0.5452
      2 C24        34.8130   29.1770   23.7110 C.2       1 418         0.1555
      3 O7         33.9700   29.5800   24.5140 O.co2     1 418        -0.5452
      4 C8         34.6800   27.7650   23.0760 C.2       1 418         0.2971
      5 O5         34.9130   26.8140   23.8310 O.2       1 418        -0.3423
      6 N4         34.2610   27.5770   21.7320 N.am      1 418        -0.1629
      7 C2         33.7830   28.6800   20.9850 C.ar      1 418         0.0876
      8 C3         32.4670   29.2020   21.3270 C.ar      1 418        -0.0408
      9 C4         31.9220   30.2880   20.6110 C.ar      1 418        -0.0707
     10 C5         32.6710   30.8710   19.5430 C.ar      1 418        -0.0514
     11 C6         33.9820   30.3820   19.1790 C.ar      1 418        -0.0707
     12 C1         34.5480   29.2740   19.9060 C.ar      1 418        -0.0408
     13 C7         31.9990   32.0180   18.7930 C.3       1 418         0.0137
     14 C9         31.3680   31.5800   17.4250 C.3       1 418         0.1312
     15 N1         30.7180   32.7640   16.8170 N.am      1 418        -0.2860
     16 C10        30.6570   32.9420   15.4740 C.2       1 418         0.1231
     17 O4         31.1040   32.1880   14.6110 O.co2     1 418        -0.5646
     18 O23        29.9480   34.2270   15.0840 O.co2     1 418        -0.5646
     19 C11        30.4820   30.3230   17.5770 C.2       1 418         0.2016
     20 O8         30.9580   29.1920   17.4300 O.2       1 418        -0.3946
     21 N2         29.1930   30.5860   17.9090 N.am      1 418        -0.2851
     22 C12        28.2650   29.4640   18.1100 C.3       1 418         0.0310
     23 C13        27.2510   29.7640   19.2260 C.3       1 418        -0.0303
     24 C15        27.8670   30.4800   20.4480 C.3       1 418        -0.0229
     25 C14        26.8440   30.7790   21.5500 C.3       1 418         0.0720
     26 O1         26.1580   29.5650   21.9140 O.3       1 418        -0.3150
     27 C32        24.8550   29.6230   22.4610 C.ar      1 418         0.1061
     28 C33        24.1590   30.8600   22.6970 C.ar      1 418        -0.0375
     29 C34        22.8510   30.8450   23.2480 C.ar      1 418        -0.0744
     30 C35        22.2330   29.6150   23.5770 C.ar      1 418        -0.0377
     31 C36        22.8880   28.3800   23.3590 C.ar      1 418         0.1026
     32 O13        22.2910   27.3500   23.6690 O.3       1 418        -0.3301
     33 C37        24.2140   28.3800   22.8090 C.ar      1 418         0.1181
     34 C38        24.9200   27.0980   22.5780 C.2       1 418         0.2509
     35 O11        25.1690   26.3300   23.4800 O.2       1 418        -0.3702
     36 O12        25.2450   26.9000   21.2920 O.3       1 418        -0.2845
     37 C39        25.9560   25.6960   20.8360 C.3       1 418         0.0641
     38 C26        34.1930   26.2560   21.1480 C.ar      1 418         0.1060
     39 C27        32.9200   25.8840   20.5450 C.ar      1 418        -0.0318
     40 C28        32.7270   24.6120   19.9320 C.ar      1 418        -0.0710
     41 C29        33.7930   23.6740   19.8700 C.ar      1 418        -0.0721
     42 C30        35.0570   23.9860   20.4380 C.ar      1 418        -0.0593
     43 C25        35.2910   25.2720   21.0640 C.ar      1 418         0.0358
     44 C31        36.6650   25.4620   21.6050 C.2       1 418         0.0560
     45 O9         37.1900   24.5760   22.2480 O.co2     1 418        -0.5651
     46 O10        37.3150   26.4900   21.4400 O.co2     1 418        -0.5651
     47 H1         31.9031   28.7531   22.1367 H         1 418         0.0510
     48 H2         30.9435   30.6770   20.8687 H         1 418         0.0525
     49 H3         34.5332   30.8439   18.3679 H         1 418         0.0525
     50 H4         35.5294   28.8910   19.6505 H         1 418         0.0510
     51 H5         32.7520   32.7956   18.5970 H         1 418         0.0448
     52 H6         31.2020   32.4312   19.4286 H         1 418         0.0448
     53 H7         32.1920   31.2920   16.7556 H         1 418         0.0799
     54 H8         30.3113   33.4539   17.4158 H         1 418         0.1741
     55 H9         28.8789   31.5294   18.0154 H         1 418         0.1851
     56 H10        28.8416   28.5678   18.3826 H         1 418         0.0520
     57 H11        27.7202   29.2785   17.1726 H         1 418         0.0520
     58 H12        26.8151   28.8124   19.5643 H         1 418         0.0285
     59 H13        26.4579   30.4039   18.8119 H         1 418         0.0285
     60 H14        28.3067   31.4305   20.1116 H         1 418         0.0292
     61 H15        28.6562   29.8391   20.8679 H         1 418         0.0292
     62 H16        26.1145   31.5157   21.1825 H         1 418         0.0617
     63 H17        27.3628   31.1847   22.4310 H         1 418         0.0617
     64 H18        24.6337   31.8037   22.4539 H         1 418         0.0464
     65 H19        22.3245   31.7773   23.4171 H         1 418         0.0600
     66 H20        21.2370   29.6192   24.0049 H         1 418         0.0464
     67 H21        22.8370   26.5976   23.4730 H         1 418         0.2507
     68 H22        26.1130   25.7527   19.7487 H         1 418         0.0574
     69 H23        25.3573   24.8044   21.0740 H         1 418         0.0574
     70 H24        26.9294   25.6305   21.3441 H         1 418         0.0574
     71 H25        32.0995   26.5921   20.5630 H         1 418         0.0529
     72 H26        31.7611   24.3583   19.5104 H         1 418         0.0602
     73 H27        33.6407   22.7157   19.3868 H         1 418         0.0507
     74 H28        35.8557   23.2539   20.4028 H         1 418         0.0614
@<TRIPOS>BOND
     1    1    2 ar 
     2    2    3 ar 
     3    2    4 1  
     4    4    5 2  
     5    4    6 am 
     6    6    7 1  
     7    6   38 1  
     8    7    8 ar 
     9    7   12 ar 
    10    8    9 ar 
    11    9   10 ar 
    12   10   11 ar 
    13   10   13 1  
    14   11   12 ar 
    15   13   14 1  
    16   14   15 1  
    17   14   19 1  
    18   15   16 am 
    19   16   17 ar 
    20   16   18 ar 
    21   19   20 2  
    22   19   21 am 
    23   21   22 1  
    24   22   23 1  
    25   23   24 1  
    26   24   25 1  
    27   25   26 1  
    28   26   27 1  
    29   27   28 ar 
    30   27   33 ar 
    31   28   29 ar 
    32   29   30 ar 
    33   30   31 ar 
    34   31   32 1  
    35   31   33 ar 
    36   33   34 1  
    37   34   35 2  
    38   34   36 1  
    39   36   37 1  
    40   38   39 ar 
    41   38   43 ar 
    42   39   40 ar 
    43   40   41 ar 
    44   41   42 ar 
    45   42   43 ar 
    46   43   44 1  
    47   44   45 ar 
    48   44   46 ar 
    49    8   47 1  
    50    9   48 1  
    51   11   49 1  
    52   12   50 1  
    53   13   51 1  
    54   13   52 1  
    55   14   53 1  
    56   15   54 1  
    57   21   55 1  
    58   22   56 1  
    59   22   57 1  
    60   23   58 1  
    61   23   59 1  
    62   24   60 1  
    63   24   61 1  
    64   25   62 1  
    65   25   63 1  
    66   28   64 1  
    67   29   65 1  
    68   30   66 1  
    69   32   67 1  
    70   37   68 1  
    71   37   69 1  
    72   37   70 1  
    73   39   71 1  
    74   40   72 1  
    75   41   73 1  
    76   42   74 1  
@<TRIPOS>SUBSTRUCTURE
     1 418         1

