### 
### Created by X-TOOL on Mon Sep 10 21:12:45 2018
### 

@<TRIPOS>MOLECULE
1pig_ligand
  131   136     1     0     0
SMALL
GAST_HUCK


@<TRIPOS>ATOM
      1 H1         30.2535   19.7684   62.4280 H         1 AGL         0.0938
      2 H2         30.4877   20.3241   64.7821 H         1 AGL         0.0672
      3 H3         33.4731   19.8434   64.3348 H         1 AGL         0.0679
      4 H4         31.3753   18.3759   65.9641 H         1 AGL         0.0902
      5 H5         32.9734   17.5519   63.5198 H         1 AGL         0.0652
      6 H6         31.5271   15.5523   63.4903 H         1 AGL         0.0257
      7 H7         30.7829   16.0620   65.0436 H         1 AGL         0.0257
      8 H8         32.5211   15.6129   64.9852 H         1 AGL         0.0257
      9 H9         32.4351   21.6569   63.1850 H         1 AGL         0.2101
     10 C1         31.1640   19.4360   62.9480 C.3       1 AGL         0.1886
     11 C2         31.3900   20.3290   64.1530 C.3       1 AGL         0.1370
     12 C3         32.5680   19.8100   64.9590 C.3       1 AGL         0.1303
     13 C4         32.3190   18.3690   65.3990 C.3       1 AGL         0.0313
     14 C5         32.0610   17.5350   64.1340 C.3       1 AGL         0.1038
     15 C6         31.6980   16.0910   64.4340 C.3       1 AGL        -0.0332
     16 O2         31.6570   21.6510   63.7300 O.3       1 AGL        -0.3840
     17 O3         32.7570   20.6270   66.0980 O.3       1 AGL        -0.3834
     18 N4         33.2190   17.8640   66.2420 N.4       1 AGL         0.2245
     19 O5         30.9640   18.0940   63.3800 O.3       1 AGL        -0.3401
     20 C1         32.3980   20.6640   57.9240 C.3       1 GLC         0.1904
     21 C2         32.5430   21.7770   58.9870 C.3       1 GLC         0.1343
     22 C3         32.9040   21.2340   60.3780 C.3       1 GLC         0.1144
     23 C4         31.9360   20.1060   60.7530 C.3       1 GLC         0.1184
     24 C5         32.0600   19.0340   59.6860 C.3       1 GLC         0.1134
     25 C6         31.2400   17.7890   59.9710 C.3       1 GLC         0.0730
     26 O2         33.5450   22.6940   58.5730 O.3       1 GLC        -0.3841
     27 O3         32.8340   22.2850   61.3330 O.3       1 GLC        -0.3864
     28 O4         32.2470   19.5580   62.0570 O.3       1 GLC        -0.3401
     29 O5         31.6290   19.5680   58.4120 O.3       1 GLC        -0.3404
     30 O6         29.8870   18.1100   60.2460 O.3       1 GLC        -0.3924
     31 C1         35.9770   20.0930   54.2750 C.3       1 HMC         0.0141
     32 C2         34.6580   20.7910   53.8760 C.3       1 HMC         0.1303
     33 O2         34.8680   21.8980   53.0220 O.3       1 HMC        -0.3821
     34 C3         33.9720   21.1780   55.2030 C.3       1 HMC         0.1219
     35 O3         32.7250   21.8060   54.9510 O.3       1 HMC        -0.3843
     36 C4         33.7920   19.8860   56.1020 C.3       1 HMC         0.1178
     37 O4         33.6630   20.2740   57.4410 O.3       1 HMC        -0.3313
     38 C5         34.8690   18.7750   56.0490 C.2       1 HMC        -0.0196
     39 C6         35.9030   18.8840   55.1900 C.2       1 HMC        -0.0543
     40 C7         34.7570   17.5630   56.9690 C.3       1 HMC         0.0719
     41 O7         33.8750   16.6550   56.3670 O.3       1 HMC        -0.3839
     42 C1         40.2830   21.1060   57.3990 C.3       1 AGL         0.1886
     43 C2         40.1680   19.9470   56.4110 C.3       1 AGL         0.1370
     44 C3         39.2120   20.2560   55.2510 C.3       1 AGL         0.1304
     45 C4         37.8550   20.7480   55.7780 C.3       1 AGL         0.0341
     46 C5         38.1450   21.9800   56.6640 C.3       1 AGL         0.1038
     47 C6         36.9090   22.6060   57.2950 C.3       1 AGL        -0.0332
     48 O2         41.4500   19.6520   55.8880 O.3       1 AGL        -0.3840
     49 O3         39.0350   19.0830   54.4700 O.3       1 AGL        -0.3834
     50 N4         36.9680   21.1080   54.6700 N.4       1 AGL         0.2433
     51 O5         39.0050   21.6110   57.7590 O.3       1 AGL        -0.3401
     52 C1         44.4520   24.2080   58.4510 C.3       1 GLC         0.1884
     53 C2         44.7270   22.8750   57.7670 C.3       1 GLC         0.1341
     54 C3         43.5410   22.4230   56.9180 C.3       1 GLC         0.1144
     55 C4         42.2580   22.4670   57.7330 C.3       1 GLC         0.1184
     56 C5         42.0850   23.8800   58.2810 C.3       1 GLC         0.1134
     57 C6         40.8480   24.0610   59.1320 C.3       1 GLC         0.0730
     58 O2         45.8710   23.0060   56.9400 O.3       1 GLC        -0.3841
     59 O3         43.7590   21.1000   56.4610 O.3       1 GLC        -0.3864
     60 O4         41.1340   22.1000   56.8960 O.3       1 GLC        -0.3401
     61 O5         43.2020   24.2000   59.1180 O.3       1 GLC        -0.3405
     62 O6         40.9880   23.3720   60.3650 O.3       1 GLC        -0.3924
     63 C1         46.5630   28.9230   57.4410 C.3       1 BGC         0.1854
     64 C2         47.3930   27.6390   57.3160 C.3       1 BGC         0.1339
     65 C3         46.4980   26.5100   56.8430 C.3       1 BGC         0.1144
     66 C4         45.4270   26.3210   57.8970 C.3       1 BGC         0.1184
     67 C5         44.6500   27.6270   58.0810 C.3       1 BGC         0.1134
     68 C6         43.6400   27.5170   59.2070 C.3       1 BGC         0.0730
     69 O1         47.3840   29.9010   57.9900 O.3       1 BGC        -0.3649
     70 O2         48.4660   27.8100   56.4090 O.3       1 BGC        -0.3841
     71 O3         47.2660   25.3240   56.6900 O.3       1 BGC        -0.3864
     72 O4         44.5420   25.2470   57.5180 O.3       1 BGC        -0.3401
     73 O5         45.5550   28.6970   58.4340 O.3       1 BGC        -0.3407
     74 O6         44.2230   26.8900   60.3420 O.3       1 BGC        -0.3924
     75 H10        32.9306   21.5191   65.8212 H         1 AGL         0.2102
     76 H11        33.3181   18.4781   67.0351 H         1 AGL         0.1999
     77 H12        34.1066   17.7756   65.7726 H         1 AGL         0.1999
     78 H13        32.9131   16.9564   66.5561 H         1 AGL         0.1999
     79 H14        31.8443   21.0907   57.0747 H         1 AGL         0.0939
     80 H15        31.5821   22.3070   59.0629 H         1 AGL         0.0671
     81 H16        33.9291   20.8358   60.3568 H         1 AGL         0.0648
     82 H17        30.9074   20.4957   60.7677 H         1 AGL         0.0651
     83 H18        33.1186   18.7430   59.6170 H         1 AGL         0.0647
     84 H19        31.6683   17.2703   60.8414 H         1 AGL         0.0584
     85 H20        31.2790   17.1267   59.0936 H         1 AGL         0.0584
     86 H21        33.6352   23.3786   59.2254 H         1 AGL         0.2101
     87 H22        33.0577   21.9463   62.1919 H         1 AGL         0.2100
     88 H23        29.5094   18.5543   59.4960 H         1 AGL         0.2095
     89 H24        36.3589   19.6738   53.3324 H         1 AGL         0.0950
     90 H25        34.0200   20.0730   53.3399 H         1 AGL         0.0694
     91 H26        35.4216   22.5339   53.4599 H         1 AGL         0.2103
     92 H27        34.6167   21.8902   55.7389 H         1 AGL         0.0671
     93 H28        32.8626   22.5756   54.4113 H         1 AGL         0.2102
     94 H29        32.8483   19.4205   55.7814 H         1 AGL         0.0773
     95 H30        36.6739   18.1156   55.1533 H         1 AGL         0.0299
     96 H31        34.3663   17.8713   57.9500 H         1 AGL         0.0706
     97 H32        35.7451   17.0970   57.0978 H         1 AGL         0.0706
     98 H33        33.7859   15.8877   56.9200 H         1 AGL         0.2125
     99 H34        40.7458   20.7137   58.3165 H         1 AGL         0.0938
    100 H35        39.7878   19.0669   56.9503 H         1 AGL         0.0672
    101 H36        39.6544   21.0434   54.6232 H         1 AGL         0.0679
    102 H37        37.3786   19.9589   56.3783 H         1 AGL         0.0903
    103 H38        38.6447   22.7359   56.0403 H         1 AGL         0.0652
    104 H39        37.2072   23.4714   57.9050 H         1 AGL         0.0257
    105 H40        36.4068   21.8636   57.9326 H         1 AGL         0.0257
    106 H41        36.2200   22.9354   56.5033 H         1 AGL         0.0257
    107 H42        41.7932   20.4180   55.4431 H         1 AGL         0.2101
    108 H43        38.4437   19.2694   53.7503 H         1 AGL         0.2102
    109 H44        37.5438   21.3047   53.8664 H         1 AGL         0.2029
    110 H45        36.4661   21.9408   54.9358 H         1 AGL         0.2029
    111 H46        45.2320   24.3675   59.2101 H         1 AGL         0.0938
    112 H47        44.9210   22.1143   58.5375 H         1 AGL         0.0671
    113 H48        43.4418   23.0948   56.0526 H         1 AGL         0.0648
    114 H49        42.3293   21.7575   58.5706 H         1 AGL         0.0651
    115 H50        42.0401   24.5786   57.4325 H         1 AGL         0.0647
    116 H51        39.9759   23.6635   58.5922 H         1 AGL         0.0584
    117 H52        40.6990   25.1325   59.3310 H         1 AGL         0.0584
    118 H53        46.6183   23.2533   57.4719 H         1 AGL         0.2101
    119 H54        43.0193   20.8225   55.9334 H         1 AGL         0.2100
    120 H55        41.7393   23.7149   60.8346 H         1 AGL         0.2095
    121 H56        46.1365   29.2284   56.4741 H         1 AGL         0.0935
    122 H57        47.8031   27.3837   58.3042 H         1 AGL         0.0671
    123 H58        46.0345   26.7721   55.8805 H         1 AGL         0.0648
    124 H59        45.9087   26.0594   58.8507 H         1 AGL         0.0651
    125 H60        44.1312   27.8700   57.1420 H         1 AGL         0.0647
    126 H61        42.7813   26.9203   58.8656 H         1 AGL         0.0584
    127 H62        43.2985   28.5247   59.4862 H         1 AGL         0.0584
    128 H63        47.7548   29.5812   58.8041 H         1 AGL         0.2126
    129 H64        48.9620   27.0018   56.3510 H         1 AGL         0.2101
    130 H65        46.7023   24.6191   56.3937 H         1 AGL         0.2100
    131 H66        44.5167   26.0182   60.1048 H         1 AGL         0.2095
@<TRIPOS>BOND
     1   10    1 1  
     2   11    2 1  
     3   12    3 1  
     4   13    4 1  
     5   14    5 1  
     6   15    6 1  
     7   15    7 1  
     8   15    8 1  
     9   10   19 1  
    10   10   11 1  
    11   11   16 1  
    12   11   12 1  
    13   12   17 1  
    14   12   13 1  
    15   13   18 1  
    16   14   13 1  
    17   19   14 1  
    18   14   15 1  
    19   20   29 1  
    20   20   21 1  
    21   21   26 1  
    22   21   22 1  
    23   22   27 1  
    24   22   23 1  
    25   23   28 1  
    26   24   23 1  
    27   29   24 1  
    28   24   25 1  
    29   25   30 1  
    30   31   39 1  
    31   31   32 1  
    32   32   34 1  
    33   32   33 1  
    34   34   36 1  
    35   34   35 1  
    36   38   36 1  
    37   36   37 1  
    38   38   40 1  
    39   39   38 2  
    40   40   41 1  
    41   42   51 1  
    42   42   43 1  
    43   43   48 1  
    44   43   44 1  
    45   44   49 1  
    46   44   45 1  
    47   45   50 1  
    48   46   45 1  
    49   51   46 1  
    50   46   47 1  
    51   52   61 1  
    52   52   53 1  
    53   53   58 1  
    54   53   54 1  
    55   54   59 1  
    56   54   55 1  
    57   55   60 1  
    58   56   55 1  
    59   61   56 1  
    60   56   57 1  
    61   57   62 1  
    62   73   63 1  
    63   63   69 1  
    64   64   63 1  
    65   64   70 1  
    66   65   64 1  
    67   65   71 1  
    68   66   65 1  
    69   72   66 1  
    70   66   67 1  
    71   67   73 1  
    72   67   68 1  
    73   68   74 1  
    74   16    9 1  
    75   17   75 1  
    76   18   76 1  
    77   18   77 1  
    78   18   78 1  
    79   20   79 1  
    80   21   80 1  
    81   22   81 1  
    82   23   82 1  
    83   24   83 1  
    84   25   84 1  
    85   25   85 1  
    86   26   86 1  
    87   27   87 1  
    88   30   88 1  
    89   31   89 1  
    90   32   90 1  
    91   33   91 1  
    92   34   92 1  
    93   35   93 1  
    94   36   94 1  
    95   39   95 1  
    96   40   96 1  
    97   40   97 1  
    98   41   98 1  
    99   42   99 1  
   100   43  100 1  
   101   44  101 1  
   102   45  102 1  
   103   46  103 1  
   104   47  104 1  
   105   47  105 1  
   106   47  106 1  
   107   48  107 1  
   108   49  108 1  
   109   50  109 1  
   110   50  110 1  
   111   52  111 1  
   112   53  112 1  
   113   54  113 1  
   114   55  114 1  
   115   56  115 1  
   116   57  116 1  
   117   57  117 1  
   118   58  118 1  
   119   59  119 1  
   120   62  120 1  
   121   63  121 1  
   122   64  122 1  
   123   65  123 1  
   124   66  124 1  
   125   67  125 1  
   126   68  126 1  
   127   68  127 1  
   128   69  128 1  
   129   70  129 1  
   130   71  130 1  
   131   74  131 1  
   132   28   10 1  
   133   37   20 1  
   134   50   31 1  
   135   60   42 1  
   136   72   52 1  
@<TRIPOS>SUBSTRUCTURE
     1 AGL         1

