### 
### Created by X-TOOL on Mon Sep 10 21:12:47 2018
### 

@<TRIPOS>MOLECULE
1pme_ligand
   43    46     1     0     0
SMALL
GAST_HUCK


@<TRIPOS>ATOM
      1 N2        -13.7810   13.9180   41.3640 N.pl3     1 SB2        -0.2489
      2 C2        -12.5420   14.0610   40.9510 C.2       1 SB2         0.1420
      3 N1        -12.3530   13.5720   39.7460 N.2       1 SB2        -0.3040
      4 C4        -13.5270   12.7880   39.4470 C.2       1 SB2         0.0428
      5 C5        -14.4120   13.0090   40.4400 C.2       1 SB2         0.1015
      6 C14       -16.8120   13.2360   41.1220 C.ar      1 SB2        -0.0288
      7 C7        -15.7510   12.4420   40.6940 C.ar      1 SB2         0.0230
      8 C16       -15.9960   11.0900   40.5670 C.ar      1 SB2        -0.0288
      9 C10       -17.2620   10.6060   40.8780 C.ar      1 SB2         0.0060
     10 N5        -18.2890   11.3480   41.2940 N.ar      1 SB2        -0.3038
     11 C18       -18.0460   12.6460   41.4050 C.ar      1 SB2         0.0060
     12 C15       -14.6710   10.9760   36.3520 C.ar      1 SB2        -0.0302
     13 C8        -13.6740   10.0510   36.2350 C.ar      1 SB2         0.1302
     14 C17       -12.6080   10.0390   37.1000 C.ar      1 SB2        -0.0302
     15 C11       -12.5730   10.9480   38.1180 C.ar      1 SB2        -0.0593
     16 C13       -13.5780   11.8760   38.2880 C.ar      1 SB2        -0.0227
     17 C19       -14.6220   11.8850   37.3820 C.ar      1 SB2        -0.0593
     18 C1        -11.4170   14.6840   41.7310 C.ar      1 SB2         0.0299
     19 C9        -10.5340   15.5730   41.1320 C.ar      1 SB2        -0.0459
     20 C3         -9.5200   16.1780   41.8690 C.ar      1 SB2        -0.0431
     21 C12        -9.3690   15.9000   43.2120 C.ar      1 SB2         0.0404
     22 C20       -10.2160   14.9850   43.7800 C.ar      1 SB2        -0.0431
     23 C6        -11.2350   14.3990   43.0680 C.ar      1 SB2        -0.0459
     24 S1         -8.2360   16.7430   44.1980 S.o       1 SB2         0.0516
     25 O1         -8.3020   18.2160   43.9820 O.2       1 SB2        -0.2522
     26 C21        -7.1180   16.0940   45.3480 C.3       1 SB2         0.0165
     27 F1        -13.8960    9.0150   35.4600 F         1 SB2        -0.1850
     28 H1        -14.2147   14.3658   42.1839 H         1 SB2         0.2374
     29 H2        -16.6809   14.3061   41.2349 H         1 SB2         0.0691
     30 H3        -15.2154   10.4171   40.2308 H         1 SB2         0.0691
     31 H4        -17.4274    9.5398   40.7739 H         1 SB2         0.0806
     32 H5        -18.8539   13.2888   41.7355 H         1 SB2         0.0806
     33 H6        -15.4902   10.9935   35.6423 H         1 SB2         0.0599
     34 H7        -11.8069    9.3193   36.9767 H         1 SB2         0.0599
     35 H8        -11.7367   10.9398   38.8076 H         1 SB2         0.0588
     36 H9        -15.4130   12.6190   37.4852 H         1 SB2         0.0588
     37 H10       -10.6358   15.7987   40.0766 H         1 SB2         0.0646
     38 H11        -8.8438   16.8728   41.3842 H         1 SB2         0.0634
     39 H12       -10.0784   14.7155   44.8209 H         1 SB2         0.0634
     40 H13       -11.9038   13.7044   43.5633 H         1 SB2         0.0646
     41 H14        -6.5421   16.9137   45.8024 H         1 SB2         0.0369
     42 H15        -6.4311   15.4007   44.8406 H         1 SB2         0.0369
     43 H16        -7.6699   15.5551   46.1322 H         1 SB2         0.0369
@<TRIPOS>BOND
     1   13   27 1  
     2    5    1 1  
     3    1    2 1  
     4    2   18 1  
     5    3    2 2  
     6    4    3 1  
     7   16    4 1  
     8    4    5 2  
     9    5    7 1  
    10    7    6 ar 
    11    7    8 ar 
    12    8    9 ar 
    13    9   10 ar 
    14   11   10 ar 
    15    6   11 ar 
    16   16   17 ar 
    17   15   16 ar 
    18   14   15 ar 
    19   13   14 ar 
    20   13   12 ar 
    21   12   17 ar 
    22   18   23 ar 
    23   18   19 ar 
    24   19   20 ar 
    25   20   21 ar 
    26   21   24 1  
    27   21   22 ar 
    28   22   23 ar 
    29   24   26 1  
    30   24   25 2  
    31    1   28 1  
    32    6   29 1  
    33    8   30 1  
    34    9   31 1  
    35   11   32 1  
    36   12   33 1  
    37   14   34 1  
    38   15   35 1  
    39   17   36 1  
    40   19   37 1  
    41   20   38 1  
    42   22   39 1  
    43   23   40 1  
    44   26   41 1  
    45   26   42 1  
    46   26   43 1  
@<TRIPOS>SUBSTRUCTURE
     1 SB2         1

