### 
### Created by X-TOOL on Mon Sep 10 21:12:50 2018
### 

@<TRIPOS>MOLECULE
1pmn_ligand
   64    68     1     0     0
SMALL
GAST_HUCK


@<TRIPOS>ATOM
      1 N1         22.9290   10.6810   31.0540 N.pl3     1 984        -0.2310
      2 C2         23.0120   12.0320   30.9590 C.2       1 984         0.1302
      3 N3         22.0990   12.6890   31.7610 N.2       1 984        -0.3098
      4 C4         21.2860   11.7150   32.5060 C.2       1 984         0.0376
      5 C5         21.8180   10.3910   32.0700 C.2       1 984         0.1094
      6 C6         23.8100    9.7730   30.2840 C.3       1 984         0.0590
      7 C7         25.0520    9.3460   31.0580 C.3       1 984        -0.0280
      8 C10        26.2730    9.1030   30.1750 C.3       1 984        -0.0627
      9 C16        23.7550   12.8320   30.2590 C.3       1 984         0.0501
     10 C17        22.9930   13.7550   29.2460 C.3       1 984         0.0076
     11 C18        23.9490   14.6900   28.4210 C.3       1 984        -0.0294
     12 N19        24.8670   15.4780   29.3040 N.4       1 984         0.2334
     13 C20        25.6460   14.6180   30.2170 C.3       1 984        -0.0294
     14 C21        24.7420   13.6940   31.1040 C.3       1 984         0.0076
     15 C31        25.7710   16.3300   28.4900 C.3       1 984        -0.0431
     16 C35        20.2330   12.1130   33.4840 C.ar      1 984        -0.0192
     17 C36        21.4780    8.9140   32.2260 C.ar      1 984         0.0673
     18 C37        20.1490   11.4870   34.7500 C.ar      1 984        -0.0429
     19 C38        19.1640   11.8230   35.6780 C.ar      1 984         0.0523
     20 C39        18.1870   12.8000   35.3520 C.ar      1 984         0.0520
     21 C40        18.2510   13.4610   34.0840 C.ar      1 984        -0.0494
     22 C41        19.2830   13.1020   33.1400 C.ar      1 984        -0.0568
     23 CL45       19.2050   10.9730   37.1650 Cl        1 984        -0.0707
     24 CL46       16.9170   13.2460   36.4370 Cl        1 984        -0.0717
     25 C47        20.2400    8.5980   32.8480 C.ar      1 984        -0.0229
     26 C48        19.9620    7.2220   33.0170 C.ar      1 984         0.0060
     27 N49        20.8310    6.2650   32.6340 N.ar      1 984        -0.2640
     28 C50        21.9780    6.6790   32.0780 C.ar      1 984         0.1807
     29 N51        22.3180    7.9500   31.8670 N.ar      1 984        -0.2602
     30 N54        22.9070    5.7760   31.6830 N.pl3     1 984        -0.2877
     31 C55        23.0400    5.3650   30.3010 C.3       1 984         0.0419
     32 C56        24.3720    4.7200   30.6710 C.3       1 984        -0.0275
     33 C57        24.2570    5.7910   29.6330 C.3       1 984        -0.0275
     34 H1         24.1295   10.2897   29.3670 H         1 984         0.0615
     35 H2         23.2372    8.8726   30.0170 H         1 984         0.0615
     36 H3         24.8223    8.4148   31.5965 H         1 984         0.0289
     37 H4         25.2989   10.1367   31.7817 H         1 984         0.0289
     38 H5         27.1244    8.7999   30.8020 H         1 984         0.0231
     39 H6         26.5256   10.0280   29.6359 H         1 984         0.0231
     40 H7         26.0490    8.3060   29.4507 H         1 984         0.0231
     41 H8         24.3813   12.1683   29.6448 H         1 984         0.0561
     42 H9         22.2882   14.3847   29.8087 H         1 984         0.0349
     43 H10        22.4354   13.1179   28.5437 H         1 984         0.0349
     44 H11        23.3386   15.3890   27.8304 H         1 984         0.0816
     45 H12        24.5544   14.0695   27.7439 H         1 984         0.0816
     46 H13        24.2963   16.0851   29.8712 H         1 984         0.2031
     47 H14        26.2463   15.2606   30.8778 H         1 984         0.0816
     48 H15        26.3144   13.9833   29.6166 H         1 984         0.0816
     49 H16        25.3893   13.0207   31.6851 H         1 984         0.0349
     50 H17        24.1593   14.3255   31.7907 H         1 984         0.0349
     51 H18        25.1723   16.9620   27.8176 H         1 984         0.0777
     52 H19        26.4392   15.6909   27.8941 H         1 984         0.0777
     53 H20        26.3711   16.9682   29.1553 H         1 984         0.0777
     54 H21        20.8731   10.7222   35.0066 H         1 984         0.0608
     55 H22        17.5274   14.2282   33.8333 H         1 984         0.0617
     56 H23        19.3291   13.5884   32.1723 H         1 984         0.0603
     57 H24        19.5490    9.3670   33.1739 H         1 984         0.0630
     58 H25        19.0214    6.9275   33.4683 H         1 984         0.0864
     59 H26        23.5385    5.3690   32.3876 H         1 984         0.1863
     60 H27        22.1524    4.9982   29.7647 H         1 984         0.0560
     61 H28        24.5884    3.6819   30.3785 H         1 984         0.0288
     62 H29        24.8436    4.9335   31.6416 H         1 984         0.0288
     63 H30        24.6671    6.7912   29.8364 H         1 984         0.0288
     64 H31        24.4119    5.5397   28.5734 H         1 984         0.0288
@<TRIPOS>BOND
     1    1    2 1  
     2    1    5 1  
     3    1    6 1  
     4    2    3 2  
     5    2    9 1  
     6    3    4 1  
     7    4    5 2  
     8    4   16 1  
     9    5   17 1  
    10    6    7 1  
    11    7    8 1  
    12    9   10 1  
    13    9   14 1  
    14   10   11 1  
    15   11   12 1  
    16   12   13 1  
    17   12   15 1  
    18   13   14 1  
    19   16   18 ar 
    20   16   22 ar 
    21   17   25 ar 
    22   17   29 ar 
    23   18   19 ar 
    24   19   20 ar 
    25   19   23 1  
    26   20   21 ar 
    27   20   24 1  
    28   21   22 ar 
    29   25   26 ar 
    30   26   27 ar 
    31   27   28 ar 
    32   28   29 ar 
    33   28   30 1  
    34   30   31 1  
    35   31   32 1  
    36   31   33 1  
    37   32   33 1  
    38    6   34 1  
    39    6   35 1  
    40    7   36 1  
    41    7   37 1  
    42    8   38 1  
    43    8   39 1  
    44    8   40 1  
    45    9   41 1  
    46   10   42 1  
    47   10   43 1  
    48   11   44 1  
    49   11   45 1  
    50   12   46 1  
    51   13   47 1  
    52   13   48 1  
    53   14   49 1  
    54   14   50 1  
    55   15   51 1  
    56   15   52 1  
    57   15   53 1  
    58   18   54 1  
    59   21   55 1  
    60   22   56 1  
    61   25   57 1  
    62   26   58 1  
    63   30   59 1  
    64   31   60 1  
    65   32   61 1  
    66   32   62 1  
    67   33   63 1  
    68   33   64 1  
@<TRIPOS>SUBSTRUCTURE
     1 984         1

