### 
### Created by X-TOOL on Mon Sep 10 21:12:50 2018
### 

@<TRIPOS>MOLECULE
1pmu_ligand
   33    36     1     0     0
SMALL
GAST_HUCK


@<TRIPOS>ATOM
      1 C1         22.3110   23.4790   47.0970 C.ar      1 9HP         0.0221
      2 C2         23.5300   23.4880   47.9300 C.ar      1 9HP         0.0026
      3 C3         23.5400   22.8160   49.1950 C.ar      1 9HP        -0.0285
      4 C4         22.3640   22.1630   49.6050 C.ar      1 9HP         0.0094
      5 N5         21.2220   22.1490   48.8470 N.ar      1 9HP        -0.2968
      6 C6         21.1770   22.7770   47.6340 C.ar      1 9HP         0.0208
      7 C10        22.3530   24.1910   45.8060 C.ar      1 9HP         0.0202
      8 C11        23.6340   24.8330   45.4700 C.ar      1 9HP         0.0522
      9 C12        24.7770   24.8190   46.3080 C.ar      1 9HP        -0.0335
     10 C13        24.7410   24.1450   47.5380 C.ar      1 9HP        -0.0409
     11 C16        21.2800   24.2860   44.8610 C.ar      1 9HP        -0.0282
     12 C17        21.4180   24.9880   43.6460 C.ar      1 9HP         0.0054
     13 C18        22.6670   25.5900   43.3760 C.ar      1 9HP         0.0172
     14 N19        23.7040   25.5090   44.2620 N.ar      1 9HP        -0.2927
     15 C22        18.4540   24.1920   41.3030 C.ar      1 9HP        -0.0306
     16 C23        19.5380   24.0020   42.2010 C.ar      1 9HP        -0.0601
     17 C24        20.2770   25.1130   42.6790 C.ar      1 9HP        -0.0208
     18 C25        19.9130   26.4000   42.2440 C.ar      1 9HP        -0.0601
     19 C26        18.8510   26.6010   41.3630 C.ar      1 9HP        -0.0306
     20 C27        18.1130   25.5110   40.8900 C.ar      1 9HP         0.0903
     21 O32        17.0730   25.7590   40.0360 O.3       1 9HP        -0.3313
     22 H1         24.4274   22.8110   49.8175 H         1 9HP         0.0720
     23 H2         22.3604   21.6496   50.5597 H         1 9HP         0.0796
     24 H3         20.2584   22.7449   47.0593 H         1 9HP         0.0858
     25 H4         25.6811   25.3303   45.9978 H         1 9HP         0.0682
     26 H5         25.6140   24.1219   48.1802 H         1 9HP         0.0675
     27 H6         20.3354   23.8045   45.0866 H         1 9HP         0.0746
     28 H7         22.8059   26.1281   42.4453 H         1 9HP         0.0855
     29 H8         17.8919   23.3410   40.9358 H         1 9HP         0.0550
     30 H9         19.8017   23.0010   42.5228 H         1 9HP         0.0607
     31 H10        20.4719   27.2569   42.6025 H         1 9HP         0.0607
     32 H11        18.5965   27.6052   41.0437 H         1 9HP         0.0550
     33 H12        16.6607   24.9380   39.7940 H         1 9HP         0.2493
@<TRIPOS>BOND
     1    1    2 ar 
     2    1    6 ar 
     3    7    1 ar 
     4    2    3 ar 
     5    2   10 ar 
     6    3    4 ar 
     7    5    4 ar 
     8    6    5 ar 
     9    7    8 ar 
    10   11    7 ar 
    11    8    9 ar 
    12   14    8 ar 
    13    9   10 ar 
    14   12   11 ar 
    15   12   13 ar 
    16   17   12 1  
    17   13   14 ar 
    18   16   15 ar 
    19   15   20 ar 
    20   16   17 ar 
    21   17   18 ar 
    22   18   19 ar 
    23   19   20 ar 
    24   20   21 1  
    25    3   22 1  
    26    4   23 1  
    27    6   24 1  
    28    9   25 1  
    29   10   26 1  
    30   11   27 1  
    31   13   28 1  
    32   15   29 1  
    33   16   30 1  
    34   18   31 1  
    35   19   32 1  
    36   21   33 1  
@<TRIPOS>SUBSTRUCTURE
     1 9HP         1

