### 
### Created by X-TOOL on Mon Sep 10 21:12:50 2018
### 

@<TRIPOS>MOLECULE
1pmv_ligand
   25    28     1     0     0
SMALL
GAST_HUCK


@<TRIPOS>ATOM
      1 C1         22.0160   31.2900   21.1280 C.ar      1 537        -0.0586
      2 C2         20.9120   31.0090   20.2710 C.ar      1 537        -0.0502
      3 C3         20.5290   29.6810   20.0120 C.ar      1 537         0.0079
      4 C4         21.2620   28.5800   20.6290 C.ar      1 537         0.0373
      5 C5         22.3660   28.8830   21.4850 C.ar      1 537        -0.0453
      6 C6         22.7460   30.2330   21.7350 C.ar      1 537        -0.0577
      7 C11        19.0570   28.0060   18.9170 C.ar      1 537         0.0343
      8 C12        17.9800   27.8110   18.0860 C.ar      1 537         0.0969
      9 C13        17.4970   26.5440   17.7530 C.ar      1 537        -0.0278
     10 C14        18.1490   25.3890   18.3050 C.ar      1 537        -0.0617
     11 C15        19.2700   25.5310   19.1790 C.ar      1 537        -0.0526
     12 C16        19.7410   26.8480   19.4980 C.ar      1 537         0.0294
     13 C20        20.8910   27.1380   20.3990 C.2       1 537         0.1520
     14 C21        19.3570   29.3720   19.1110 C.2       1 537         0.0738
     15 O22        21.5220   26.2160   20.9300 O.2       1 537        -0.3745
     16 N23        18.4490   30.0980   18.3710 N.2       1 537        -0.1869
     17 N24        17.6370   29.1070   17.7700 N.pl3     1 537        -0.2053
     18 H1         22.3008   32.3185   21.3181 H         1 537         0.0647
     19 H2         20.3635   31.8255   19.8154 H         1 537         0.0625
     20 H3         22.9207   28.0758   21.9495 H         1 537         0.0666
     21 H4         23.5862   30.4523   22.3838 H         1 537         0.0617
     22 H5         16.6461   26.4339   17.0905 H         1 537         0.0619
     23 H6         17.7862   24.3985   18.0555 H         1 537         0.0599
     24 H7         19.7575   24.6567   19.5950 H         1 537         0.0610
     25 H8         16.8511   29.3369   17.1452 H         1 537         0.2507
@<TRIPOS>BOND
     1    2    1 ar 
     2    1    6 ar 
     3    3    2 ar 
     4    3    4 ar 
     5   14    3 1  
     6    4    5 ar 
     7    4   13 1  
     8    5    6 ar 
     9    7    8 ar 
    10    7   12 ar 
    11   14    7 1  
    12    8    9 ar 
    13    8   17 1  
    14    9   10 ar 
    15   10   11 ar 
    16   11   12 ar 
    17   12   13 1  
    18   13   15 2  
    19   14   16 2  
    20   16   17 1  
    21    1   18 1  
    22    2   19 1  
    23    5   20 1  
    24    6   21 1  
    25    9   22 1  
    26   10   23 1  
    27   11   24 1  
    28   17   25 1  
@<TRIPOS>SUBSTRUCTURE
     1 537         1

