### 
### Created by X-TOOL on Mon Sep 10 21:12:45 2018
### 

@<TRIPOS>MOLECULE
1pop_ligand
   71    70     1     0     0
SMALL
GAST_HUCK


@<TRIPOS>ATOM
      1 C          18.1090   68.4890   20.9420 C.2       1 ACE         0.1751
      2 O          18.4260   68.6970   19.7590 O.2       1 ACE        -0.3972
      3 CH3        17.2150   67.3360   21.3560 C.3       1 ACE         0.0258
      4 N          18.4390   69.2520   21.9840 N.am      1 LEU        -0.2658
      5 CA         19.3980   70.3440   21.8930 C.3       1 LEU         0.1311
      6 C          20.8050   69.7210   21.9520 C.2       1 LEU         0.2039
      7 O          21.0500   68.7570   22.7010 O.2       1 LEU        -0.3944
      8 CB         19.2100   71.3170   23.0690 C.3       1 LEU        -0.0101
      9 CG         18.4410   72.5990   22.7690 C.3       1 LEU        -0.0425
     10 CD1        17.0440   72.3170   22.2550 C.3       1 LEU        -0.0625
     11 CD2        18.3480   73.3840   24.0720 C.3       1 LEU        -0.0625
     12 H1         17.0749   67.3541   22.4469 H         1 ACE         0.0467
     13 N          21.7030   70.2520   21.1320 N.am      1 LEU        -0.2637
     14 CA         23.0830   69.7930   21.0930 C.3       1 LEU         0.1311
     15 C          23.8410   70.9130   21.7800 C.2       1 LEU         0.2020
     16 O          23.4470   72.0710   21.6410 O.2       1 LEU        -0.3945
     17 CB         23.5640   69.6140   19.6350 C.3       1 LEU        -0.0101
     18 CG         22.9140   68.5270   18.7280 C.3       1 LEU        -0.0425
     19 CD1        22.8360   67.2150   19.5150 C.3       1 LEU        -0.0625
     20 CD2        21.4890   68.9040   18.3240 C.3       1 LEU        -0.0625
     21 H2         17.6834   66.3850   21.0623 H         1 ACE         0.0467
     22 N          24.8150   70.4970   22.5850 N.am      1 AR7        -0.2798
     23 CA         25.7070   71.3740   23.3310 C.3       1 AR7         0.0652
     24 C          27.1860   71.1710   22.9740 C.3       1 AR7         0.0671
     25 O          28.0600   72.1980   23.4900 O.3       1 AR7        -0.3927
     26 CB         25.5290   71.1390   24.8290 C.3       1 AR7        -0.0246
     27 CG         24.4710   72.0230   25.4630 C.3       1 AR7        -0.0176
     28 CD         23.2980   71.2940   26.0920 C.3       1 AR7         0.0626
     29 NE         23.6370   70.5240   27.2910 N.pl3     1 AR7        -0.2723
     30 CZ         23.2540   69.2280   27.4570 C.cat     1 AR7         0.2882
     31 NH1        22.5280   68.5910   26.5020 N.pl3     1 AR7        -0.2849
     32 NH2        23.5910   68.5640   28.5830 N.pl3     1 AR7        -0.2849
     33 H3         16.2383   67.4326   20.8592 H         1 ACE         0.0467
     34 H4         18.0089   69.0662   22.8675 H         1 LEU         0.1882
     35 H5         19.2636   70.8846   20.9445 H         1 LEU         0.0800
     36 H6         20.2088   71.6023   23.4309 H         1 LEU         0.0315
     37 H7         18.6710   70.7813   23.8643 H         1 LEU         0.0315
     38 H8         18.9879   73.1852   22.0158 H         1 LEU         0.0298
     39 H9         16.5288   73.2677   22.0529 H         1 LEU         0.0232
     40 H10        16.4825   71.7493   23.0116 H         1 LEU         0.0232
     41 H11        17.1063   71.7293   21.3272 H         1 LEU         0.0232
     42 H12        19.3607   73.5908   24.4485 H         1 LEU         0.0232
     43 H13        17.7933   72.7942   24.8166 H         1 LEU         0.0232
     44 H14        17.8230   74.3336   23.8913 H         1 LEU         0.0232
     45 H15        21.4220   70.9919   20.5208 H         1 LEU         0.1883
     46 H16        23.1997   68.8446   21.6378 H         1 LEU         0.0800
     47 H17        24.6394   69.3875   19.6810 H         1 LEU         0.0315
     48 H18        23.4139   70.5798   19.1303 H         1 LEU         0.0315
     49 H19        23.5283   68.3918   17.8256 H         1 LEU         0.0298
     50 H20        22.3784   66.4370   18.8863 H         1 LEU         0.0232
     51 H21        22.2243   67.3642   20.4169 H         1 LEU         0.0232
     52 H22        23.8492   66.9016   19.8068 H         1 LEU         0.0232
     53 H23        21.5061   69.8451   17.7547 H         1 LEU         0.0232
     54 H24        20.8738   69.0328   19.2267 H         1 LEU         0.0232
     55 H25        21.0615   68.1056   17.6997 H         1 LEU         0.0232
     56 H26        24.9441   69.5104   22.6852 H         1 AR7         0.1855
     57 H27        25.4356   72.4143   23.0983 H         1 AR7         0.0579
     58 H28        27.2786   71.1563   21.8780 H         1 AR7         0.0580
     59 H29        27.5109   70.2027   23.3825 H         1 AR7         0.0580
     60 H30        28.9547   72.0096   23.2324 H         1 AR7         0.2095
     61 H31        26.4896   71.3346   25.3279 H         1 AR7         0.0289
     62 H32        25.2424   70.0884   24.9842 H         1 AR7         0.0289
     63 H33        24.0757   72.6903   24.6830 H         1 AR7         0.0300
     64 H34        24.9565   72.6226   26.2470 H         1 AR7         0.0300
     65 H35        22.8822   70.6020   25.3449 H         1 AR7         0.0689
     66 H36        22.5364   72.0391   26.3655 H         1 AR7         0.0689
     67 H37        24.1847   70.9792   28.0351 H         1 AR7         0.2642
     68 H38        22.2443   67.6104   26.6393 H         1 AR7         0.2615
     69 H39        22.2612   69.0885   25.6405 H         1 AR7         0.2615
     70 H40        24.1413   69.0365   29.3143 H         1 AR7         0.2615
     71 H41        23.2978   67.5849   28.7108 H         1 AR7         0.2615
@<TRIPOS>BOND
     1    1    2 2  
     2    1    3 1  
     3    1    4 am 
     4    4    5 1  
     5    3   12 1  
     6    5    6 1  
     7    5    8 1  
     8    6    7 2  
     9    6   13 am 
    10    8    9 1  
    11    9   10 1  
    12    9   11 1  
    13   13   14 1  
    14    3   21 1  
    15   14   15 1  
    16   14   17 1  
    17   15   16 2  
    18   15   22 am 
    19   17   18 1  
    20   18   19 1  
    21   18   20 1  
    22   22   23 1  
    23    3   33 1  
    24   23   24 1  
    25   23   26 1  
    26   24   25 1  
    27   26   27 1  
    28   27   28 1  
    29   28   29 1  
    30   29   30 ar 
    31    4   34 1  
    32   30   31 ar 
    33   30   32 ar 
    34    5   35 1  
    35    8   36 1  
    36    8   37 1  
    37    9   38 1  
    38   10   39 1  
    39   10   40 1  
    40   10   41 1  
    41   11   42 1  
    42   11   43 1  
    43   11   44 1  
    44   13   45 1  
    45   14   46 1  
    46   17   47 1  
    47   17   48 1  
    48   18   49 1  
    49   19   50 1  
    50   19   51 1  
    51   19   52 1  
    52   20   53 1  
    53   20   54 1  
    54   20   55 1  
    55   22   56 1  
    56   23   57 1  
    57   24   58 1  
    58   24   59 1  
    59   25   60 1  
    60   26   61 1  
    61   26   62 1  
    62   27   63 1  
    63   27   64 1  
    64   28   65 1  
    65   28   66 1  
    66   29   67 1  
    67   31   68 1  
    68   31   69 1  
    69   32   70 1  
    70   32   71 1  
@<TRIPOS>SUBSTRUCTURE
     1 ACE         1

