### 
### Created by X-TOOL on Mon Sep 10 21:12:45 2018
### 

@<TRIPOS>MOLECULE
1pot_ligand
   32    31     1     0     0
SMALL
GAST_HUCK


@<TRIPOS>ATOM
      1 N1         66.7990   40.4000    4.7550 N.4       1 SPD         0.2185
      2 C2         65.9220   39.7940    5.8220 C.3       1 SPD        -0.0352
      3 C3         66.4670   40.2840    7.1960 C.3       1 SPD        -0.0078
      4 C4         65.8930   41.6730    7.3910 C.3       1 SPD        -0.0078
      5 C5         65.9020   42.1410    8.8050 C.3       1 SPD        -0.0335
      6 N6         65.0520   43.2980    8.8800 N.4       1 SPD         0.2271
      7 C7         64.8010   44.0790   10.0130 C.3       1 SPD        -0.0288
      8 C8         65.9350   45.0240   10.2850 C.3       1 SPD         0.0275
      9 C9         65.7540   45.7360   11.5500 C.3       1 SPD        -0.0305
     10 N10        66.5480   47.0270   11.5690 N.4       1 SPD         0.2187
     11 H1         66.4762   40.1045    3.8469 H         1 SPD         0.1994
     12 H2         67.7504   40.0952    4.8889 H         1 SPD         0.1994
     13 H3         66.7565   41.4052    4.8160 H         1 SPD         0.1994
     14 H4         65.9664   38.6962    5.7684 H         1 SPD         0.0813
     15 H5         64.8818   40.1258    5.6888 H         1 SPD         0.0813
     16 H6         67.5663   40.3215    7.1817 H         1 SPD         0.0319
     17 H7         66.1334   39.6142    8.0023 H         1 SPD         0.0319
     18 H8         64.8523   41.6701    7.0346 H         1 SPD         0.0319
     19 H9         66.4846   42.3790    6.7896 H         1 SPD         0.0319
     20 H10        66.9259   42.4065    9.1067 H         1 SPD         0.0814
     21 H11        65.5187   41.3494    9.4656 H         1 SPD         0.0814
     22 H12        64.1455   42.9759    8.5790 H         1 SPD         0.2013
     23 H13        65.4241   43.9399    8.1977 H         1 SPD         0.2013
     24 H14        64.6691   43.4178   10.8822 H         1 SPD         0.0816
     25 H15        63.8811   44.6601    9.8513 H         1 SPD         0.0816
     26 H16        65.9913   45.7580    9.4677 H         1 SPD         0.0369
     27 H17        66.8733   44.4516   10.3292 H         1 SPD         0.0369
     28 H18        66.0937   45.0934   12.3756 H         1 SPD         0.0815
     29 H19        64.6870   45.9687   11.6816 H         1 SPD         0.0815
     30 H20        66.4055   47.4962   12.4497 H         1 SPD         0.1994
     31 H21        66.2387   47.6228   10.8170 H         1 SPD         0.1994
     32 H22        67.5278   46.8206   11.4530 H         1 SPD         0.1994
@<TRIPOS>BOND
     1    1    2 1  
     2    2    3 1  
     3    3    4 1  
     4    4    5 1  
     5    5    6 1  
     6    6    7 1  
     7    7    8 1  
     8    8    9 1  
     9    9   10 1  
    10    1   11 1  
    11    1   12 1  
    12    1   13 1  
    13    2   14 1  
    14    2   15 1  
    15    3   16 1  
    16    3   17 1  
    17    4   18 1  
    18    4   19 1  
    19    5   20 1  
    20    5   21 1  
    21    6   22 1  
    22    6   23 1  
    23    7   24 1  
    24    7   25 1  
    25    8   26 1  
    26    8   27 1  
    27    9   28 1  
    28    9   29 1  
    29   10   30 1  
    30   10   31 1  
    31   10   32 1  
@<TRIPOS>SUBSTRUCTURE
     1 SPD         1

