### 
### Created by X-TOOL on Mon Sep 10 21:12:45 2018
### 

@<TRIPOS>MOLECULE
1pph_ligand
   59    61     1     0     0
SMALL
GAST_HUCK


@<TRIPOS>ATOM
      1 S          -5.9300    4.1070   23.9760 S.o2      1 0ZG         0.0675
      2 C1         -4.8070    4.0070   25.3830 C.ar      1 0ZG         0.1013
      3 C6         -4.2000    2.8170   25.7530 C.ar      1 0ZG        -0.0419
      4 C5         -3.2240    2.8500   26.7350 C.ar      1 0ZG        -0.0588
      5 C4         -2.8870    4.0670   27.3290 C.ar      1 0ZG        -0.0460
      6 C7         -1.7820    4.1410   28.3860 C.3       1 0ZG        -0.0311
      7 C3         -3.5280    5.2410   26.9810 C.ar      1 0ZG        -0.0588
      8 C2         -4.4930    5.2050   26.0050 C.ar      1 0ZG        -0.0419
      9 O2         -7.0380    5.0670   24.3810 O.2       1 0ZG        -0.1510
     10 O1         -6.4450    2.7280   23.5830 O.2       1 0ZG        -0.1510
     11 C          -2.6780    4.5080   22.8020 C.2       1 0ZG         0.2023
     12 O          -2.5950    5.6420   23.3040 O.2       1 0ZG        -0.3946
     13 CA         -3.9800    4.1220   22.0690 C.3       1 0ZG         0.1357
     14 N          -5.1570    4.7810   22.6350 N.am      1 0ZG        -0.2242
     15 CB         -3.8870    4.4550   20.5690 C.3       1 0ZG         0.0179
     16 CG         -3.0970    5.7160   20.1980 C.ar      1 0ZG        -0.0390
     17 CD2        -1.7560    5.6350   19.8730 C.ar      1 0ZG        -0.0601
     18 CE2        -1.0870    6.7790   19.5080 C.ar      1 0ZG        -0.0686
     19 CZ         -1.7150    8.0070   19.4520 C.ar      1 0ZG        -0.0635
     20 CE1        -3.0700    8.1220   19.7700 C.ar      1 0ZG         0.0192
     21 CF         -3.7400    9.3550   19.6970 C.cat     1 0ZG         0.2340
     22 NG2        -5.0450    9.4360   20.0230 N.pl3     1 0ZG        -0.2722
     23 NG1        -3.0570   10.4510   19.3200 N.pl3     1 0ZG        -0.2722
     24 CD1        -3.7080    6.9530   20.1380 C.ar      1 0ZG        -0.0549
     25 N1         -1.6380    3.6540   22.8470 N.am      1 0ZG        -0.2715
     26 C6         -0.3530    4.0580   23.3900 C.3       1 0ZG         0.0339
     27 C5         -0.0730    3.1140   24.5260 C.3       1 0ZG        -0.0325
     28 C4          0.0540    1.7490   23.9040 C.3       1 0ZG        -0.0494
     29 C3         -1.2340    1.3360   23.2080 C.3       1 0ZG        -0.0325
     30 C2         -1.6090    2.3590   22.1590 C.3       1 0ZG         0.0339
     31 H1         -4.4829    1.8815   25.2842 H         1 0ZG         0.0619
     32 H2         -2.7254    1.9371   27.0400 H         1 0ZG         0.0557
     33 H3         -1.6704    5.1807   28.7275 H         1 0ZG         0.0391
     34 H4         -0.8335    3.7945   27.9498 H         1 0ZG         0.0391
     35 H5         -2.0482    3.5011   29.2402 H         1 0ZG         0.0391
     36 H6         -3.2732    6.1742   27.4702 H         1 0ZG         0.0557
     37 H7         -5.0098    6.1145   25.7207 H         1 0ZG         0.0619
     38 H8         -4.1138    3.0353   22.1749 H         1 0ZG         0.0777
     39 H9         -5.5023    5.6273   22.2292 H         1 0ZG         0.1707
     40 H10        -4.9120    4.5786   20.1895 H         1 0ZG         0.0469
     41 H11        -3.4100    3.6012   20.0656 H         1 0ZG         0.0469
     42 H12        -1.2391    4.6827   19.9055 H         1 0ZG         0.0557
     43 H13        -0.0345    6.7149   19.2566 H         1 0ZG         0.0599
     44 H14        -1.1534    8.8868   19.1596 H         1 0ZG         0.0559
     45 H15        -5.5342   10.3408   19.9688 H         1 0ZG         0.3181
     46 H16        -5.5533    8.5931   20.3264 H         1 0ZG         0.3181
     47 H17        -2.0598   10.3768   19.0731 H         1 0ZG         0.3181
     48 H18        -3.5313   11.3644   19.2782 H         1 0ZG         0.3181
     49 H19        -4.7590    7.0107   20.3971 H         1 0ZG         0.0556
     50 H20        -0.4006    5.0942   23.7560 H         1 0ZG         0.0522
     51 H21         0.4302    3.9760   22.6220 H         1 0ZG         0.0522
     52 H22        -0.9012    3.1294   25.2497 H         1 0ZG         0.0285
     53 H23         0.8625    3.3921   25.0333 H         1 0ZG         0.0285
     54 H24         0.2863    1.0168   24.6913 H         1 0ZG         0.0267
     55 H25         0.8700    1.7659   23.1666 H         1 0ZG         0.0267
     56 H26        -2.0420    1.2638   23.9509 H         1 0ZG         0.0285
     57 H27        -1.0898    0.3575   22.7267 H         1 0ZG         0.0285
     58 H28        -0.8606    2.3714   21.3530 H         1 0ZG         0.0522
     59 H29        -2.5984    2.1284   21.7372 H         1 0ZG         0.0522
@<TRIPOS>BOND
     1    1    2 1  
     2    1    9 2  
     3    1   10 2  
     4    2    3 ar 
     5    2    8 ar 
     6    3    4 ar 
     7    4    5 ar 
     8    5    6 1  
     9    7    5 ar 
    10    8    7 ar 
    11   11   12 2  
    12   13   11 1  
    13   11   25 am 
    14   14   13 1  
    15   13   15 1  
    16   14    1 am 
    17   15   16 1  
    18   16   17 ar 
    19   16   24 ar 
    20   17   18 ar 
    21   18   19 ar 
    22   19   20 ar 
    23   20   21 1  
    24   24   20 ar 
    25   21   22 ar 
    26   21   23 ar 
    27   25   26 1  
    28   25   30 1  
    29   26   27 1  
    30   27   28 1  
    31   28   29 1  
    32   29   30 1  
    33    3   31 1  
    34    4   32 1  
    35    6   33 1  
    36    6   34 1  
    37    6   35 1  
    38    7   36 1  
    39    8   37 1  
    40   13   38 1  
    41   14   39 1  
    42   15   40 1  
    43   15   41 1  
    44   17   42 1  
    45   18   43 1  
    46   19   44 1  
    47   22   45 1  
    48   22   46 1  
    49   23   47 1  
    50   23   48 1  
    51   24   49 1  
    52   26   50 1  
    53   26   51 1  
    54   27   52 1  
    55   27   53 1  
    56   28   54 1  
    57   28   55 1  
    58   29   56 1  
    59   29   57 1  
    60   30   58 1  
    61   30   59 1  
@<TRIPOS>SUBSTRUCTURE
     1 0ZG         1

