### 
### Created by X-TOOL on Mon Sep 10 21:12:45 2018
### 

@<TRIPOS>MOLECULE
1ppi_ligand
  109   113     1     0     0
SMALL
GAST_HUCK


@<TRIPOS>ATOM
      1 C1         -6.4470   42.0170   20.3790 C.3       1 GLC         0.1884
      2 C2         -7.2950   40.8830   19.8840 C.3       1 GLC         0.1341
      3 C3         -8.3870   41.3930   19.0000 C.3       1 GLC         0.1141
      4 C4         -9.1730   42.4470   19.7670 C.3       1 GLC         0.1119
      5 C5         -8.2210   43.5230   20.3360 C.3       1 GLC         0.1130
      6 C6         -8.9970   44.4170   21.2840 C.3       1 GLC         0.0730
      7 O2         -6.5080   39.9780   19.1370 O.3       1 GLC        -0.3841
      8 O3         -9.2470   40.3370   18.5590 O.3       1 GLC        -0.3864
      9 O4        -10.0910   43.0080   18.8680 O.3       1 GLC        -0.3865
     10 O5         -7.1860   42.9170   21.1020 O.3       1 GLC        -0.3405
     11 O6         -8.6980   45.7520   20.9370 O.3       1 GLC        -0.3924
     12 C1         -1.6780   43.2060   19.0060 C.3       1 GLC         0.1904
     13 C2         -2.3270   41.9370   18.4130 C.3       1 GLC         0.1343
     14 C3         -3.8250   42.0960   18.1490 C.3       1 GLC         0.1144
     15 C4         -4.4510   42.5740   19.4330 C.3       1 GLC         0.1184
     16 C5         -3.8220   43.9250   19.7940 C.3       1 GLC         0.1134
     17 C6         -4.4500   44.6300   20.9810 C.3       1 GLC         0.0730
     18 O2         -1.6970   41.6770   17.1770 O.3       1 GLC        -0.3841
     19 O3         -4.3490   40.8450   17.7320 O.3       1 GLC        -0.3864
     20 O4         -5.8350   42.6370   19.2750 O.3       1 GLC        -0.3401
     21 O5         -2.4280   43.7140   20.0910 O.3       1 GLC        -0.3404
     22 O6         -4.4360   43.8180   22.1390 O.3       1 GLC        -0.3924
     23 C1         -1.8510   45.3880   11.6290 C.3       1 DAF         0.1886
     24 C2         -1.2850   46.7440   12.0960 C.3       1 DAF         0.1370
     25 C3          0.0420   46.6070   12.8510 C.3       1 DAF         0.1304
     26 C4         -0.1160   45.5480   13.9590 C.3       1 DAF         0.0341
     27 C5         -0.5370   44.2380   13.3000 C.3       1 DAF         0.1038
     28 C6         -0.6720   43.1510   14.3080 C.3       1 DAF        -0.0332
     29 O2         -1.0150   47.6070   10.9840 O.3       1 DAF        -0.3840
     30 O3          0.3800   47.8830   13.3550 O.3       1 DAF        -0.3834
     31 O5         -1.8110   44.4050   12.6750 O.3       1 DAF        -0.3401
     32 N4          1.1260   45.3300   14.7210 N.4       1 DAF         0.2433
     33 C1H         1.2800   46.1780   15.9140 C.3       1 DAF         0.0141
     34 C2H         1.8920   45.3700   17.0860 C.3       1 DAF         0.1303
     35 C3H         0.9000   44.2990   17.5130 C.3       1 DAF         0.1219
     36 C4H        -0.3440   44.9730   18.1520 C.3       1 DAF         0.1178
     37 C5H        -0.6410   46.3460   17.5390 C.2       1 DAF        -0.0196
     38 C6H        -0.0080   46.8420   16.4430 C.2       1 DAF        -0.0543
     39 C7H        -1.6590   47.2330   18.2330 C.3       1 DAF         0.0719
     40 O2H         3.1140   44.7660   16.7790 O.3       1 DAF        -0.3821
     41 O3H         1.5420   43.4180   18.4160 O.3       1 DAF        -0.3843
     42 O4H        -1.5160   44.1700   17.9860 O.3       1 DAF        -0.3313
     43 O7H        -0.9520   47.9890   19.2210 O.3       1 DAF        -0.3839
     44 C1         -1.8550   43.4380    6.9130 C.3       1 BGC         0.1854
     45 C2         -1.7700   44.9480    6.9870 C.3       1 BGC         0.1339
     46 C3         -1.0550   45.2740    8.2450 C.3       1 BGC         0.1144
     47 C4         -1.8850   44.7240    9.3540 C.3       1 BGC         0.1184
     48 C5         -2.1290   43.2010    9.2180 C.3       1 BGC         0.1134
     49 C6         -3.1180   42.6780   10.2650 C.3       1 BGC         0.0730
     50 O1         -2.3840   43.0410    5.6870 O.3       1 BGC        -0.3649
     51 O2         -1.0960   45.4900    5.8630 O.3       1 BGC        -0.3841
     52 O3         -0.8810   46.6760    8.3050 O.3       1 BGC        -0.3864
     53 O4         -1.1020   44.9690   10.4940 O.3       1 BGC        -0.3401
     54 O5         -2.6850   42.9630    7.9420 O.3       1 BGC        -0.3407
     55 O6         -4.4240   43.2090   10.0430 O.3       1 BGC        -0.3924
     56 H1         -5.6634   41.6102   21.0351 H         1 GLC         0.0938
     57 H2         -7.7359   40.3613   20.7462 H         1 GLC         0.0671
     58 H3         -7.9342   41.8613   18.1136 H         1 GLC         0.0648
     59 H4         -9.7142   41.9739   20.5996 H         1 GLC         0.0647
     60 H5         -7.7908   44.1130   19.5133 H         1 GLC         0.0647
     61 H6         -8.6920   44.2201   22.3224 H         1 GLC         0.0584
     62 H7        -10.0762   44.2326   21.1776 H         1 GLC         0.0584
     63 H8         -6.1268   40.4304   18.3937 H         1 GLC         0.2101
     64 H9         -8.7393   39.6996   18.0709 H         1 GLC         0.2100
     65 H10       -10.6692   42.3283   18.5421 H         1 GLC         0.2100
     66 H11        -8.9598   45.9105   20.0377 H         1 GLC         0.2095
     67 H12        -0.6810   42.9369   19.3847 H         1 GLC         0.0939
     68 H13        -2.1709   41.0954   19.1039 H         1 GLC         0.0671
     69 H14        -3.9947   42.8410   17.3577 H         1 GLC         0.0648
     70 H15        -4.2269   41.8574   20.2369 H         1 GLC         0.0651
     71 H16        -3.9127   44.5853   18.9189 H         1 GLC         0.0647
     72 H17        -5.4920   44.8825   20.7353 H         1 GLC         0.0584
     73 H18        -3.8876   45.5529   21.1860 H         1 GLC         0.0584
     74 H19        -2.0769   40.8986   16.7867 H         1 GLC         0.2101
     75 H20        -5.2801   40.9327   17.5651 H         1 GLC         0.2100
     76 H21        -3.5383   43.5999   22.3607 H         1 GLC         0.2095
     77 H22        -2.9006   45.5265   11.3306 H         1 GLC         0.0938
     78 H23        -2.0285   47.2161   12.7550 H         1 GLC         0.0672
     79 H24         0.8302   46.2765   12.1586 H         1 GLC         0.0679
     80 H25        -0.9008   45.8779   14.6556 H         1 GLC         0.0903
     81 H26         0.2143   43.9533   12.5487 H         1 GLC         0.0652
     82 H27        -0.9757   42.2208   13.8056 H         1 GLC         0.0257
     83 H28        -1.4333   43.4320   15.0506 H         1 GLC         0.0257
     84 H29         0.2932   42.9969   14.8126 H         1 GLC         0.0257
     85 H30        -0.3788   47.1945   10.4116 H         1 GLC         0.2101
     86 H31         1.2013   47.8276   13.8292 H         1 GLC         0.2102
     87 H32         1.9052   45.5093   14.1072 H         1 GLC         0.2029
     88 H33         1.1463   44.3667   15.0172 H         1 GLC         0.2029
     89 H34         1.9785   46.9832   15.6427 H         1 GLC         0.0950
     90 H35         2.0566   46.0606   17.9262 H         1 GLC         0.0694
     91 H36         0.5774   43.7289   16.6294 H         1 GLC         0.0671
     92 H37        -0.1470   45.1001   19.2267 H         1 GLC         0.0773
     93 H38        -0.4135   47.7153   15.9342 H         1 GLC         0.0299
     94 H39        -2.4331   46.6158   18.7124 H         1 GLC         0.0706
     95 H40        -2.1289   47.9100   17.5044 H         1 GLC         0.0706
     96 H41         2.9952   44.1644   16.0534 H         1 GLC         0.2103
     97 H42         2.2877   43.0148   17.9871 H         1 GLC         0.2102
     98 H43        -0.2826   48.5136   18.7976 H         1 GLC         0.2125
     99 H44        -0.8470   43.0132    7.0290 H         1 GLC         0.0935
    100 H45        -2.7855   45.3694    7.0222 H         1 GLC         0.0671
    101 H46        -0.0663   44.7920    8.2591 H         1 GLC         0.0648
    102 H47        -2.8512   45.2465    9.4116 H         1 GLC         0.0651
    103 H48        -1.1724   42.6679    9.3216 H         1 GLC         0.0647
    104 H49        -2.7736   42.9762   11.2662 H         1 GLC         0.0584
    105 H50        -3.1604   41.5805   10.2036 H         1 GLC         0.0584
    106 H51        -2.4266   42.0925    5.6539 H         1 GLC         0.2126
    107 H52        -1.5640   45.2544    5.0705 H         1 GLC         0.2101
    108 H53        -0.4237   46.9032    9.1061 H         1 GLC         0.2100
    109 H54        -4.7271   42.9510    9.1805 H         1 GLC         0.2095
@<TRIPOS>BOND
     1    1   10 1  
     2    1    2 1  
     3    2    7 1  
     4    2    3 1  
     5    3    8 1  
     6    3    4 1  
     7    4    9 1  
     8    5    4 1  
     9   10    5 1  
    10    5    6 1  
    11    6   11 1  
    12   12   21 1  
    13   12   13 1  
    14   13   18 1  
    15   13   14 1  
    16   14   19 1  
    17   14   15 1  
    18   15   20 1  
    19   16   15 1  
    20   21   16 1  
    21   16   17 1  
    22   17   22 1  
    23   23   31 1  
    24   23   24 1  
    25   24   29 1  
    26   24   25 1  
    27   25   30 1  
    28   25   26 1  
    29   26   32 1  
    30   27   26 1  
    31   31   27 1  
    32   27   28 1  
    33   32   33 1  
    34   33   38 1  
    35   33   34 1  
    36   34   40 1  
    37   34   35 1  
    38   35   41 1  
    39   35   36 1  
    40   36   42 1  
    41   37   36 1  
    42   37   39 1  
    43   38   37 2  
    44   39   43 1  
    45   54   44 1  
    46   44   50 1  
    47   45   44 1  
    48   45   51 1  
    49   46   45 1  
    50   46   52 1  
    51   47   46 1  
    52   53   47 1  
    53   47   48 1  
    54   48   54 1  
    55   48   49 1  
    56   49   55 1  
    57   20    1 1  
    58   42   12 1  
    59   53   23 1  
    60    1   56 1  
    61    2   57 1  
    62    3   58 1  
    63    4   59 1  
    64    5   60 1  
    65    6   61 1  
    66    6   62 1  
    67    7   63 1  
    68    8   64 1  
    69    9   65 1  
    70   11   66 1  
    71   12   67 1  
    72   13   68 1  
    73   14   69 1  
    74   15   70 1  
    75   16   71 1  
    76   17   72 1  
    77   17   73 1  
    78   18   74 1  
    79   19   75 1  
    80   22   76 1  
    81   23   77 1  
    82   24   78 1  
    83   25   79 1  
    84   26   80 1  
    85   27   81 1  
    86   28   82 1  
    87   28   83 1  
    88   28   84 1  
    89   29   85 1  
    90   30   86 1  
    91   32   87 1  
    92   32   88 1  
    93   33   89 1  
    94   34   90 1  
    95   35   91 1  
    96   36   92 1  
    97   38   93 1  
    98   39   94 1  
    99   39   95 1  
   100   40   96 1  
   101   41   97 1  
   102   43   98 1  
   103   44   99 1  
   104   45  100 1  
   105   46  101 1  
   106   47  102 1  
   107   48  103 1  
   108   49  104 1  
   109   49  105 1  
   110   50  106 1  
   111   51  107 1  
   112   52  108 1  
   113   55  109 1  
@<TRIPOS>SUBSTRUCTURE
     1 GLC         1

