### 
### Created by X-TOOL on Mon Sep 10 21:12:50 2018
### 

@<TRIPOS>MOLECULE
1pq6_ligand
   72    75     1     0     0
SMALL
GAST_HUCK


@<TRIPOS>ATOM
      1 O37        45.9280   22.4830   41.9660 O.co2     1 965        -0.5664
      2 C35        46.0060   22.9220   43.1170 C.2       1 965         0.0461
      3 O36        46.1540   24.1370   43.3520 O.co2     1 965        -0.5664
      4 C34        45.9910   22.0480   44.3360 C.3       1 965         0.0310
      5 C32        45.0900   20.8430   44.1200 C.ar      1 965        -0.0390
      6 C31        43.7290   20.9850   44.3850 C.ar      1 965        -0.0697
      7 C30        42.8480   19.9350   44.1450 C.ar      1 965        -0.0769
      8 C29        43.3330   18.7340   43.6340 C.ar      1 965        -0.0399
      9 C28        44.6910   18.5920   43.3610 C.ar      1 965         0.0847
     10 O27        45.1450   17.3970   42.8930 O.3       1 965        -0.3195
     11 C26        44.6170   16.8430   41.7080 C.3       1 965         0.0751
     12 C25        44.9200   15.3770   41.7030 C.3       1 965         0.0153
     13 C17        44.1000   14.6790   40.6300 C.3       1 965        -0.0276
     14 N09        43.5910   13.3960   41.1190 N.4       1 965         0.2507
     15 C16        44.5040   12.5210   41.8260 C.3       1 965         0.0092
     16 C18        43.8830   11.8270   42.9990 C.ar      1 965         0.0447
     17 C23        43.1380   12.4980   43.9500 C.ar      1 965        -0.0262
     18 C22        42.5800   11.7950   45.0150 C.ar      1 965        -0.0379
     19 C21        42.7420   10.4150   45.1750 C.ar      1 965        -0.0377
     20 C20        43.4790    9.6620   44.2660 C.ar      1 965         0.0542
     21 C19        44.0860   10.3810   43.1320 C.ar      1 965         0.0788
     22 CL4        45.0460    9.5000   41.9130 Cl        1 965        -0.0494
     23 C39        43.6720    8.1640   44.3680 C.3       1 965         0.3741
     24 F41        43.0970    7.6170   43.2920 F         1 965        -0.2217
     25 F40        43.1460    7.6810   45.4810 F         1 965        -0.2217
     26 F42        44.9580    7.8540   44.3740 F         1 965        -0.2217
     27 C08        42.3410   12.8510   40.5950 C.3       1 965        -0.0086
     28 C07        41.1590   13.8370   40.5850 C.3       1 965         0.0656
     29 C01        40.1170   13.4550   39.5870 C.ar      1 965        -0.0238
     30 C02        39.8390   12.1220   39.2590 C.ar      1 965        -0.0579
     31 C03        38.8640   11.7950   38.3180 C.ar      1 965        -0.0682
     32 C04        38.1420   12.8000   37.6930 C.ar      1 965        -0.0685
     33 C05        38.4280   14.1250   37.9970 C.ar      1 965        -0.0682
     34 C06        39.3930   14.4610   38.9490 C.ar      1 965        -0.0579
     35 C10        40.5620   13.9380   41.9350 C.ar      1 965        -0.0238
     36 C15        40.0380   12.8110   42.5720 C.ar      1 965        -0.0579
     37 C14        39.5020   12.9050   43.8580 C.ar      1 965        -0.0682
     38 C13        39.4570   14.1470   44.4890 C.ar      1 965        -0.0685
     39 C12        39.9780   15.2600   43.8430 C.ar      1 965        -0.0682
     40 C11        40.5300   15.1630   42.5700 C.ar      1 965        -0.0579
     41 C33        45.5770   19.6360   43.6050 C.ar      1 965        -0.0306
     42 H1         45.6184   22.6288   45.1926 H         1 965         0.0586
     43 H2         47.0139   21.7015   44.5449 H         1 965         0.0586
     44 H3         43.3536   21.9215   44.7815 H         1 965         0.0467
     45 H4         41.7908   20.0513   44.3545 H         1 965         0.0572
     46 H5         42.6536   17.9099   43.4488 H         1 965         0.0487
     47 H6         45.0812   17.3223   40.8335 H         1 965         0.0615
     48 H7         43.5285   16.9985   41.6767 H         1 965         0.0615
     49 H8         44.6715   14.9505   42.6860 H         1 965         0.0343
     50 H9         45.9903   15.2272   41.4982 H         1 965         0.0343
     51 H10        44.7340   14.5033   39.7484 H         1 965         0.0815
     52 H11        43.2516   15.3206   40.3496 H         1 965         0.0815
     53 H12        43.1718   13.7804   41.9512 H         1 965         0.2052
     54 H13        45.3521   13.1216   42.1865 H         1 965         0.0988
     55 H14        44.8681   11.7573   41.1231 H         1 965         0.0988
     56 H15        42.9883   13.5684   43.8673 H         1 965         0.0801
     57 H16        41.9969   12.3391   45.7492 H         1 965         0.0683
     58 H17        42.2840    9.9218   46.0247 H         1 965         0.0799
     59 H18        42.0593   11.9860   41.2134 H         1 965         0.0864
     60 H19        42.5190   12.5203   39.5611 H         1 965         0.0864
     61 H20        41.5478   14.8273   40.3055 H         1 965         0.0672
     62 H21        40.3934   11.3285   39.7469 H         1 965         0.0561
     63 H22        38.6706   10.7564   38.0753 H         1 965         0.0600
     64 H23        37.3654   12.5554   36.9773 H         1 965         0.0561
     65 H24        37.8908   14.9148   37.4845 H         1 965         0.0600
     66 H25        39.5785   15.5012   39.1911 H         1 965         0.0561
     67 H26        40.0475   11.8539   42.0631 H         1 965         0.0561
     68 H27        39.1249   12.0215   44.3602 H         1 965         0.0600
     69 H28        39.0189   14.2431   45.4759 H         1 965         0.0561
     70 H29        39.9541   16.2230   44.3402 H         1 965         0.0600
     71 H30        40.9319   16.0427   42.0804 H         1 965         0.0561
     72 H31        46.6343   19.5161   43.3984 H         1 965         0.0481
@<TRIPOS>BOND
     1    1    2 ar 
     2    2    3 ar 
     3    2    4 1  
     4    4    5 1  
     5    5    6 ar 
     6    5   41 ar 
     7    6    7 ar 
     8    7    8 ar 
     9    8    9 ar 
    10    9   10 1  
    11    9   41 ar 
    12   10   11 1  
    13   11   12 1  
    14   12   13 1  
    15   13   14 1  
    16   14   15 1  
    17   14   27 1  
    18   15   16 1  
    19   16   17 ar 
    20   16   21 ar 
    21   17   18 ar 
    22   18   19 ar 
    23   19   20 ar 
    24   20   21 ar 
    25   20   23 1  
    26   21   22 1  
    27   23   24 1  
    28   23   25 1  
    29   23   26 1  
    30   27   28 1  
    31   28   29 1  
    32   28   35 1  
    33   29   30 ar 
    34   29   34 ar 
    35   30   31 ar 
    36   31   32 ar 
    37   32   33 ar 
    38   33   34 ar 
    39   35   36 ar 
    40   35   40 ar 
    41   36   37 ar 
    42   37   38 ar 
    43   38   39 ar 
    44   39   40 ar 
    45    4   42 1  
    46    4   43 1  
    47    6   44 1  
    48    7   45 1  
    49    8   46 1  
    50   11   47 1  
    51   11   48 1  
    52   12   49 1  
    53   12   50 1  
    54   13   51 1  
    55   13   52 1  
    56   14   53 1  
    57   15   54 1  
    58   15   55 1  
    59   17   56 1  
    60   18   57 1  
    61   19   58 1  
    62   27   59 1  
    63   27   60 1  
    64   28   61 1  
    65   30   62 1  
    66   31   63 1  
    67   32   64 1  
    68   33   65 1  
    69   34   66 1  
    70   36   67 1  
    71   37   68 1  
    72   38   69 1  
    73   39   70 1  
    74   40   71 1  
    75   41   72 1  
@<TRIPOS>SUBSTRUCTURE
     1 965         1

