### 
### Created by X-TOOL on Mon Sep 10 21:12:50 2018
### 

@<TRIPOS>MOLECULE
1pqc_ligand
   43    44     1     0     0
SMALL
GAST_HUCK


@<TRIPOS>ATOM
      1 O13       -12.9030   32.5200   41.9080 O.2       1 444        -0.1412
      2 S12       -11.7140   32.2680   41.1740 S.o2      1 444         0.1037
      3 O14       -11.2330   30.9450   41.5000 O.2       1 444        -0.1412
      4 C01       -12.3070   32.2400   39.5010 C.ar      1 444         0.1176
      5 C02       -11.7620   31.3120   38.5460 C.ar      1 444        -0.0342
      6 C03       -12.2240   31.3000   37.2090 C.ar      1 444        -0.0599
      7 C04       -13.2240   32.2130   36.8270 C.ar      1 444        -0.0616
      8 C05       -13.7490   33.1390   37.7830 C.ar      1 444        -0.0599
      9 C06       -13.2960   33.1640   39.1290 C.ar      1 444        -0.0342
     10 N15       -10.4330   33.5360   41.2050 N.am      1 444        -0.1349
     11 C16        -9.2920   33.2720   40.2260 C.3       1 444         0.1652
     12 C19        -7.9830   33.6200   40.8420 C.3       1 444         0.4159
     13 F22        -7.0290   33.1160   40.0450 F         1 444        -0.1679
     14 F21        -7.8180   33.1670   42.0910 F         1 444        -0.1679
     15 F20        -7.8320   34.9230   40.9560 F         1 444        -0.1679
     16 C23       -10.8350   34.9820   41.1850 C.ar      1 444         0.1131
     17 C24       -10.9650   35.6720   42.3970 C.ar      1 444        -0.0071
     18 C25       -11.3790   37.0200   42.4580 C.ar      1 444        -0.0506
     19 C28       -11.1600   35.7250   40.0000 C.ar      1 444        -0.0071
     20 C27       -11.5810   37.0740   40.0530 C.ar      1 444        -0.0506
     21 C26       -11.6930   37.7790   41.2890 C.ar      1 444        -0.0342
     22 C33       -12.1900   39.2470   41.4800 C.3       1 444         0.2176
     23 C34       -11.5510   40.2410   40.5020 C.3       1 444         0.3869
     24 F36       -11.9670   41.5100   40.7690 F         1 444        -0.1800
     25 F37       -10.2180   40.1500   40.5930 F         1 444        -0.1800
     26 F35       -11.8190   39.9740   39.2150 F         1 444        -0.1800
     27 O42       -11.9930   39.7830   42.8230 O.3       1 444        -0.4296
     28 C38       -13.7280   39.2350   41.1630 C.3       1 444         0.3869
     29 F39       -14.0060   38.7640   39.9130 F         1 444        -0.1800
     30 F40       -14.3730   38.3940   42.0180 F         1 444        -0.1800
     31 F41       -14.3970   40.4110   41.2320 F         1 444        -0.1800
     32 H1        -10.9903   30.6157   38.8538 H         1 444         0.0637
     33 H2        -11.8144   30.5990   36.4907 H         1 444         0.0618
     34 H3        -13.5965   32.2149   35.8090 H         1 444         0.0618
     35 H4        -14.5138   33.8411   37.4714 H         1 444         0.0618
     36 H5        -13.6999   33.8718   39.8438 H         1 444         0.0637
     37 H6         -9.4409   33.8833   39.3237 H         1 444         0.0688
     38 H7         -9.2905   32.2069   39.9511 H         1 444         0.0688
     39 H8        -10.7396   35.1522   43.3211 H         1 444         0.0617
     40 H9        -11.4618   37.4971   43.4278 H         1 444         0.0796
     41 H10       -11.0802   35.2370   39.0354 H         1 444         0.0617
     42 H11       -11.8253   37.5867   39.1297 H         1 444         0.0796
     43 H12       -11.0627   39.8719   42.9940 H         1 444         0.1901
@<TRIPOS>BOND
     1    1    2 2  
     2    2    3 2  
     3    2    4 1  
     4    2   10 am 
     5    4    5 ar 
     6    4    9 ar 
     7    5    6 ar 
     8    6    7 ar 
     9    7    8 ar 
    10    8    9 ar 
    11   10   11 1  
    12   10   16 1  
    13   11   12 1  
    14   12   13 1  
    15   12   14 1  
    16   12   15 1  
    17   16   17 ar 
    18   16   19 ar 
    19   17   18 ar 
    20   18   21 ar 
    21   19   20 ar 
    22   20   21 ar 
    23   21   22 1  
    24   22   23 1  
    25   22   27 1  
    26   22   28 1  
    27   23   24 1  
    28   23   25 1  
    29   23   26 1  
    30   28   29 1  
    31   28   30 1  
    32   28   31 1  
    33    5   32 1  
    34    6   33 1  
    35    7   34 1  
    36    8   35 1  
    37    9   36 1  
    38   11   37 1  
    39   11   38 1  
    40   17   39 1  
    41   18   40 1  
    42   19   41 1  
    43   20   42 1  
    44   27   43 1  
@<TRIPOS>SUBSTRUCTURE
     1 444         1

