### 
### Created by X-TOOL on Mon Sep 10 21:12:50 2018
### 

@<TRIPOS>MOLECULE
1pr1_ligand
   31    33     1     0     0
SMALL
GAST_HUCK


@<TRIPOS>ATOM
      1 N1         87.4890   65.9250   17.7080 N.am      1 FMB        -0.2040
      2 C2         88.1440   64.8000   18.2760 C.2       1 FMB         0.1155
      3 N3         89.2540   64.9770   19.0850 N.2       1 FMB        -0.3133
      4 C4         89.6470   66.2750   19.3090 C.2       1 FMB         0.0514
      5 C5         89.0050   67.4310   18.7950 C.2       1 FMB         0.1658
      6 C6         87.8710   67.2660   17.9260 C.2       1 FMB         0.2557
      7 O6         87.2530   68.1700   17.3840 O.2       1 FMB        -0.3928
      8 N7         89.6040   68.5870   19.2210 N.pl3     1 FMB        -0.2175
      9 N8         90.6690   68.1320   19.9920 N.2       1 FMB        -0.2166
     10 C9         90.7400   66.7270   20.0430 C.2       1 FMB         0.0647
     11 C1'        91.8340   66.0780   20.7670 C.3       1 FMB         0.1274
     12 C2'        91.6940   64.5840   21.1650 C.3       1 FMB         0.1185
     13 O2'        91.8850   64.5630   22.5730 O.3       1 FMB        -0.3847
     14 C3'        92.7660   63.8050   20.3850 C.3       1 FMB         0.1135
     15 O3'        93.8180   63.2550   21.2060 O.3       1 FMB        -0.3863
     16 C4'        93.4550   64.8110   19.4940 C.3       1 FMB         0.1128
     17 O4'        92.9400   66.1140   19.8240 O.3       1 FMB        -0.3544
     18 C5'        93.2720   64.4190   18.0160 C.3       1 FMB         0.0731
     19 O5'        93.3410   65.5160   17.1070 O.3       1 FMB        -0.3924
     20 H1         86.7034   65.7553   17.1129 H         1 FMB         0.2524
     21 H2         87.7726   63.7962   18.0749 H         1 FMB         0.1425
     22 H3         89.3314   69.5595   19.0190 H         1 FMB         0.2487
     23 H4         92.0534   66.6616   21.6732 H         1 FMB         0.0772
     24 H5         90.6971   64.1930   20.9135 H         1 FMB         0.0667
     25 H6         91.8119   63.6698   22.8881 H         1 FMB         0.2102
     26 H7         92.2897   63.0046   19.7997 H         1 FMB         0.0648
     27 H8         93.4428   62.6538   21.8387 H         1 FMB         0.2100
     28 H9         94.5332   64.8029   19.7117 H         1 FMB         0.0648
     29 H10        92.2876   63.9408   17.9053 H         1 FMB         0.0584
     30 H11        94.0609   63.7002   17.7496 H         1 FMB         0.0584
     31 H12        93.2200   65.1987   16.2198 H         1 FMB         0.2095
@<TRIPOS>BOND
     1    1    2 am 
     2    1    6 am 
     3    2    3 2  
     4    3    4 1  
     5    4    5 2  
     6    4   10 1  
     7    5    6 1  
     8    5    8 1  
     9    6    7 2  
    10    8    9 1  
    11    9   10 2  
    12   10   11 1  
    13   11   12 1  
    14   11   17 1  
    15   12   13 1  
    16   12   14 1  
    17   14   15 1  
    18   14   16 1  
    19   16   17 1  
    20   16   18 1  
    21   18   19 1  
    22    1   20 1  
    23    2   21 1  
    24    8   22 1  
    25   11   23 1  
    26   12   24 1  
    27   13   25 1  
    28   14   26 1  
    29   15   27 1  
    30   16   28 1  
    31   18   29 1  
    32   18   30 1  
    33   19   31 1  
@<TRIPOS>SUBSTRUCTURE
     1 FMB         1

