### 
### Created by X-TOOL on Mon Sep 10 21:12:50 2018
### 

@<TRIPOS>MOLECULE
1pr5_ligand
   33    35     1     0     0
SMALL
GAST_HUCK


@<TRIPOS>ATOM
      1 O5'        93.1020   65.3430   17.0350 O.3       1 TBN        -0.3924
      2 C5'        92.9520   64.2410   17.9490 C.3       1 TBN         0.0730
      3 C4'        93.3630   64.6330   19.3910 C.3       1 TBN         0.1135
      4 O4'        93.0510   65.9980   19.6980 O.3       1 TBN        -0.3372
      5 C1'        91.8750   66.0560   20.5210 C.3       1 TBN         0.1959
      6 N9         90.8320   66.7750   19.7220 N.pl3     1 TBN        -0.2236
      7 C8         90.7280   68.1580   19.5650 C.2       1 TBN         0.0302
      8 C7         89.6670   68.4780   18.7670 C.2       1 TBN        -0.0543
      9 C5         89.0920   67.2960   18.4130 C.ar      1 TBN         0.0433
     10 C6         87.9540   67.1120   17.5810 C.ar      1 TBN         0.1162
     11 N1         87.6000   65.7900   17.3980 N.ar      1 TBN        -0.2733
     12 C2         88.3190   64.7970   17.9910 C.ar      1 TBN         0.0500
     13 N3         89.4130   64.9040   18.7920 N.ar      1 TBN        -0.2771
     14 C4         89.7640   66.2270   18.9720 C.ar      1 TBN         0.1399
     15 N6         87.2630   68.1100   17.0060 N.pl3     1 TBN        -0.3157
     16 C2'        91.6160   64.6470   21.0890 C.3       1 TBN         0.1381
     17 O2'        91.8140   64.7190   22.5020 O.3       1 TBN        -0.3836
     18 C3'        92.6290   63.7410   20.3970 C.3       1 TBN         0.1145
     19 O3'        93.5020   63.0550   21.3100 O.3       1 TBN        -0.3864
     20 H1         94.0101   65.6213   17.0226 H         1 TBN         0.2095
     21 H2         93.5868   63.4086   17.6112 H         1 TBN         0.0584
     22 H3         91.8994   63.9215   17.9527 H         1 TBN         0.0584
     23 H4         94.4479   64.4852   19.4965 H         1 TBN         0.0647
     24 H5         92.0848   66.6946   21.3917 H         1 TBN         0.0991
     25 H6         91.4019   68.8838   20.0177 H         1 TBN         0.0924
     26 H7         89.3460   69.4763   18.4734 H         1 TBN         0.0311
     27 H8         87.9736   63.7876   17.7992 H         1 TBN         0.0975
     28 H9         86.4470   67.8974   16.4145 H         1 TBN         0.1826
     29 H10        87.5491   69.0880   17.1566 H         1 TBN         0.1826
     30 H11        90.5922   64.3087   20.8715 H         1 TBN         0.0676
     31 H12        91.6618   63.8635   22.8860 H         1 TBN         0.2101
     32 H13        92.0802   62.9680   19.8390 H         1 TBN         0.0648
     33 H14        92.9849   62.5115   21.8929 H         1 TBN         0.2100
@<TRIPOS>BOND
     1    1    2 1  
     2    2    3 1  
     3    3    4 1  
     4    3   18 1  
     5    4    5 1  
     6    5    6 1  
     7    5   16 1  
     8    6    7 1  
     9    6   14 1  
    10    7    8 2  
    11    8    9 1  
    12    9   10 ar 
    13    9   14 ar 
    14   10   11 ar 
    15   10   15 1  
    16   11   12 ar 
    17   12   13 ar 
    18   13   14 ar 
    19   16   17 1  
    20   16   18 1  
    21   18   19 1  
    22    1   20 1  
    23    2   21 1  
    24    2   22 1  
    25    3   23 1  
    26    5   24 1  
    27    7   25 1  
    28    8   26 1  
    29   12   27 1  
    30   15   28 1  
    31   15   29 1  
    32   16   30 1  
    33   17   31 1  
    34   18   32 1  
    35   19   33 1  
@<TRIPOS>SUBSTRUCTURE
     1 TBN         1

