### 
### Created by X-TOOL on Mon Sep 10 21:12:45 2018
### 

@<TRIPOS>MOLECULE
1pro_ligand
   81    85     1     0     0
SMALL
GAST_HUCK


@<TRIPOS>ATOM
      1 N1         -8.6090   17.4790   26.9670 N.4       1 A88         0.3852
      2 N2         -8.6350   16.0340   26.7950 N.am      1 A88        -0.2122
      3 C3         -8.8340   15.1390   27.7930 C.2       1 A88         0.3038
      4 O3         -8.1960   14.0580   27.7490 O.2       1 A88        -0.3969
      5 N4         -9.7380   15.5000   28.7370 N.am      1 A88        -0.2386
      6 C5        -10.7830   16.4110   28.6900 C.3       1 A88         0.0877
      7 C6        -10.5070   17.9430   28.3120 C.3       1 A88         0.1203
      8 O6        -11.7120   18.5780   28.6250 O.3       1 A88        -0.3841
      9 C7         -9.9550   18.2170   26.9280 C.3       1 A88         0.0235
     10 C8         -7.5970   18.0110   27.9810 C.3       1 A88         0.0271
     11 C9         -6.2610   18.0140   27.2600 C.ar      1 A88         0.0022
     12 C10        -5.9990   18.9990   26.2900 C.ar      1 A88        -0.0553
     13 C11        -4.7980   18.9680   25.5870 C.ar      1 A88        -0.0684
     14 C12        -3.8660   17.9650   25.8660 C.ar      1 A88        -0.0687
     15 C13        -4.1400   16.9950   26.8340 C.ar      1 A88        -0.0684
     16 C14        -5.3300   17.0100   27.5410 C.ar      1 A88        -0.0553
     17 C15       -11.8350   15.7240   27.7790 C.3       1 A88         0.0068
     18 C16       -12.5130   14.5110   28.4400 C.ar      1 A88        -0.0408
     19 C17       -13.5150   14.6890   29.4100 C.ar      1 A88        -0.0603
     20 C18       -14.1260   13.5700   29.9890 C.ar      1 A88        -0.0686
     21 C19       -13.7420   12.2830   29.6090 C.ar      1 A88        -0.0687
     22 C20       -12.7480   12.1180   28.6470 C.ar      1 A88        -0.0686
     23 C21       -12.1290   13.2200   28.0570 C.ar      1 A88        -0.0603
     24 C22        -9.5080   14.6890   30.0310 C.3       1 A88         0.0613
     25 C23        -9.7610   15.3130   31.3930 C.ar      1 A88        -0.0407
     26 C24       -10.8880   14.9570   32.1220 C.ar      1 A88        -0.0379
     27 C25       -11.1060   15.5500   33.3650 C.ar      1 A88         0.1130
     28 C26       -10.1860   16.4640   33.8690 C.ar      1 A88         0.1091
     29 C27        -9.0600   16.8300   33.1410 C.ar      1 A88        -0.0481
     30 C28        -8.8540   16.2530   31.8950 C.ar      1 A88        -0.0782
     31 O29       -10.3860   17.0270   35.0700 O.3       1 A88        -0.3414
     32 O30       -12.3300   15.2890   33.9950 O.3       1 A88        -0.3266
     33 C31       -13.2190   14.1460   33.8460 C.3       1 A88         0.0568
     34 C32        -7.9030   15.5780   25.5260 C.3       1 A88         0.0996
     35 C33        -8.3250   16.1260   24.1900 C.ar      1 A88        -0.0359
     36 C34        -9.6010   15.8450   23.6790 C.ar      1 A88        -0.0781
     37 C35        -9.9640   16.3570   22.4350 C.ar      1 A88        -0.0481
     38 C36        -9.0500   17.1410   21.7250 C.ar      1 A88         0.1091
     39 C37        -7.7900   17.4080   22.2460 C.ar      1 A88         0.1130
     40 C38        -7.4230   16.8970   23.4700 C.ar      1 A88        -0.0378
     41 O39        -9.6420   17.4790   20.5660 O.3       1 A88        -0.3414
     42 O40        -6.9770   18.2840   21.5320 O.3       1 A88        -0.3266
     43 C41        -6.2750   19.3230   22.2660 C.3       1 A88         0.0568
     44 H1         -8.1967   17.7733   26.0956 H         1 A88         0.2325
     45 H2        -11.2002   16.4518   29.7070 H         1 A88         0.0608
     46 H3         -9.7413   18.3209   29.0055 H         1 A88         0.0672
     47 H4        -11.5971   19.5193   28.5667 H         1 A88         0.2101
     48 H5        -10.6127   17.8071   26.1474 H         1 A88         0.0849
     49 H6         -9.8147   19.2950   26.7603 H         1 A88         0.0849
     50 H7         -7.5559   17.3551   28.8631 H         1 A88         0.0988
     51 H8         -7.8667   19.0304   28.2943 H         1 A88         0.0988
     52 H9         -6.7275   19.7768   26.0915 H         1 A88         0.0558
     53 H10        -4.5877   19.7150   24.8301 H         1 A88         0.0599
     54 H11        -2.9250   17.9391   25.3285 H         1 A88         0.0559
     55 H12        -3.4098   16.2193   27.0342 H         1 A88         0.0599
     56 H13        -5.5353   16.2597   28.2959 H         1 A88         0.0558
     57 H14       -11.3337   15.3859   26.8601 H         1 A88         0.0449
     58 H15       -12.6105   16.4612   27.5237 H         1 A88         0.0449
     59 H16       -13.8131   15.6876   29.7082 H         1 A88         0.0557
     60 H17       -14.9005   13.7038   30.7355 H         1 A88         0.0599
     61 H18       -14.2142   11.4175   30.0595 H         1 A88         0.0559
     62 H19       -12.4511   11.1179   28.3525 H         1 A88         0.0599
     63 H20       -11.3576   13.0783   27.3087 H         1 A88         0.0557
     64 H21        -8.4543   14.3735   30.0209 H         1 A88         0.0660
     65 H22       -10.1567   13.8031   29.9660 H         1 A88         0.0660
     66 H23       -11.5884   14.2283   31.7302 H         1 A88         0.0451
     67 H24        -8.3560   17.5522   33.5384 H         1 A88         0.0492
     68 H25        -7.9863   16.5321   31.3082 H         1 A88         0.0437
     69 H26        -9.6708   17.6218   35.2627 H         1 A88         0.2420
     70 H27       -14.0952   14.2755   34.4983 H         1 A88         0.0573
     71 H28       -12.6848   13.2267   34.1279 H         1 A88         0.0573
     72 H29       -13.5489   14.0720   32.7993 H         1 A88         0.0573
     73 H30        -8.0087   14.4845   25.4711 H         1 A88         0.0712
     74 H31        -6.8422   15.8377   25.6577 H         1 A88         0.0712
     75 H32       -10.2966   15.2365   24.2455 H         1 A88         0.0437
     76 H33       -10.9446   16.1496   22.0222 H         1 A88         0.0492
     77 H34        -6.4351   17.0955   23.8695 H         1 A88         0.0451
     78 H35       -10.4357   17.9684   20.7480 H         1 A88         0.2420
     79 H36        -5.6795   19.9277   21.5662 H         1 A88         0.0573
     80 H37        -5.6091   18.8606   23.0095 H         1 A88         0.0573
     81 H38        -7.0049   19.9673   22.7779 H         1 A88         0.0573
@<TRIPOS>BOND
     1    1   10 1  
     2    1    9 1  
     3    1    2 1  
     4    2   34 1  
     5    2    3 am 
     6    3    5 am 
     7    3    4 2  
     8    5   24 1  
     9    5    6 1  
    10    6   17 1  
    11    6    7 1  
    12    7    9 1  
    13    7    8 1  
    14   17   18 1  
    15   18   23 ar 
    16   18   19 ar 
    17   19   20 ar 
    18   20   21 ar 
    19   21   22 ar 
    20   22   23 ar 
    21   24   25 1  
    22   25   30 ar 
    23   25   26 ar 
    24   26   27 ar 
    25   27   32 1  
    26   27   28 ar 
    27   28   31 1  
    28   28   29 ar 
    29   29   30 ar 
    30   32   33 1  
    31   34   35 1  
    32   35   40 ar 
    33   35   36 ar 
    34   36   37 ar 
    35   37   38 ar 
    36   38   41 1  
    37   38   39 ar 
    38   39   42 1  
    39   39   40 ar 
    40   42   43 1  
    41   10   11 1  
    42   11   16 ar 
    43   11   12 ar 
    44   12   13 ar 
    45   13   14 ar 
    46   14   15 ar 
    47   15   16 ar 
    48    1   44 1  
    49    6   45 1  
    50    7   46 1  
    51    8   47 1  
    52    9   48 1  
    53    9   49 1  
    54   10   50 1  
    55   10   51 1  
    56   12   52 1  
    57   13   53 1  
    58   14   54 1  
    59   15   55 1  
    60   16   56 1  
    61   17   57 1  
    62   17   58 1  
    63   19   59 1  
    64   20   60 1  
    65   21   61 1  
    66   22   62 1  
    67   23   63 1  
    68   24   64 1  
    69   24   65 1  
    70   26   66 1  
    71   29   67 1  
    72   30   68 1  
    73   31   69 1  
    74   33   70 1  
    75   33   71 1  
    76   33   72 1  
    77   34   73 1  
    78   34   74 1  
    79   36   75 1  
    80   37   76 1  
    81   40   77 1  
    82   41   78 1  
    83   43   79 1  
    84   43   80 1  
    85   43   81 1  
@<TRIPOS>SUBSTRUCTURE
     1 A88         1

