### 
### Created by X-TOOL on Mon Sep 10 21:12:50 2018
### 

@<TRIPOS>MOLECULE
1pu7_ligand
   22    23     1     0     0
SMALL
GAST_HUCK


@<TRIPOS>ATOM
      1 N6        121.4080    9.0630   46.2260 N.pl3     1 39A        -0.2686
      2 C6        120.1280    8.8610   46.6300 C.ar      1 39A         0.2261
      3 C5        119.1820    9.6610   46.0500 C.ar      1 39A         0.2147
      4 N7        119.2500   10.6740   45.0980 N.2       1 39A        -0.1849
      5 C4        117.8290    9.4640   46.4620 C.ar      1 39A         0.2291
      6 N9        117.0850   10.3170   45.8000 N.pl3     1 39A        -0.1768
      7 C8        117.9280   11.0250   44.9910 C.2       1 39A         0.1826
      8 C9M       115.6230   10.3360   46.0290 C.3       1 39A         0.0624
      9 N3        117.4830    8.4900   47.4270 N.ar      1 39A        -0.2857
     10 C3M       116.0870    8.3100   47.8690 C.3       1 39A         0.0161
     11 C2        118.4790    7.7520   47.9560 C.ar      1 39A         0.1033
     12 N1        119.7550    7.9360   47.5650 N.ar      1 39A        -0.1964
     13 H1        122.1693    8.4942   46.6233 H         1 39A         0.2258
     14 H2        121.6180    9.7850   45.5221 H         1 39A         0.2258
     15 H3        117.5789   11.8049   44.3158 H         1 39A         0.1826
     16 H4        115.3604    9.5808   46.7844 H         1 39A         0.0600
     17 H5        115.1014   10.1095   45.0874 H         1 39A         0.0600
     18 H6        115.3206   11.3317   46.3854 H         1 39A         0.0600
     19 H7        116.0404    7.5060   48.6183 H         1 39A         0.0433
     20 H8        115.4604    8.0429   47.0053 H         1 39A         0.0433
     21 H9        115.7193    9.2468   48.3131 H         1 39A         0.0433
     22 H10       118.2508    7.0019   48.7045 H         1 39A         0.1339
@<TRIPOS>BOND
     1    1    2 1  
     2    2    3 ar 
     3    2   12 ar 
     4    3    4 1  
     5    3    5 ar 
     6    4    7 2  
     7    5    6 1  
     8    5    9 ar 
     9    6    7 1  
    10    6    8 1  
    11    9   10 1  
    12    9   11 ar 
    13   11   12 ar 
    14    1   13 1  
    15    1   14 1  
    16    7   15 1  
    17    8   16 1  
    18    8   17 1  
    19    8   18 1  
    20   10   19 1  
    21   10   20 1  
    22   10   21 1  
    23   11   22 1  
@<TRIPOS>SUBSTRUCTURE
     1 39A         1

