### 
### Created by X-TOOL on Sun Sep  9 21:50:12 2018
### 

@<TRIPOS>MOLECULE
1pw6_ligand
   70    73     1     0     0
SMALL
GAST_HUCK


@<TRIPOS>ATOM
      1 N1         94.3120   19.3070    9.3370 N.pl3     1 NON        -0.2847
      2 C2         94.1410   20.5630    8.9540 C.cat     1 NON         0.2905
      3 N3         94.7950   21.0120    7.8880 N.pl3     1 NON        -0.2847
      4 N4         93.3170   21.3460    9.6520 N.pl3     1 NON        -0.2517
      5 C5         92.4610   22.3590    9.0540 C.3       1 NON         0.1650
      6 C6         92.6020   23.6300    9.8870 C.3       1 NON         0.0126
      7 C7         94.0150   24.2080    9.7580 C.3       1 NON        -0.0446
      8 C8         94.2020   25.4860   10.5810 C.3       1 NON        -0.0525
      9 C9         93.1310   26.5340   10.2690 C.3       1 NON        -0.0530
     10 C10        91.7220   25.9530   10.3780 C.3       1 NON        -0.0525
     11 C11        91.5740   24.6990    9.5150 C.3       1 NON        -0.0446
     12 C12        91.0340   21.8870    8.9540 C.2       1 NON         0.2186
     13 O13        90.4700   21.4000    9.9200 O.2       1 NON        -0.3927
     14 N14        90.4370   22.0170    7.7690 N.am      1 NON        -0.2652
     15 C15        89.2010   22.5140    7.6720 C.3       1 NON         0.1202
     16 C16        88.8210   23.1870    6.5700 C.2       1 NON         0.2010
     17 O17        89.6680   23.7400    5.8830 O.2       1 NON        -0.3947
     18 N18        87.4500   23.2590    6.1900 N.am      1 NON        -0.2712
     19 C19        86.4610   22.3660    6.8150 C.3       1 NON         0.0363
     20 C20        85.7200   21.6190    5.7070 C.3       1 NON        -0.0161
     21 C23        86.9920   24.2010    5.1450 C.3       1 NON         0.0363
     22 C22        86.2460   23.4400    4.0420 C.3       1 NON        -0.0161
     23 C21        85.1420   22.5630    4.6440 C.3       1 NON         0.0246
     24 C24        84.3660   21.7350    3.6740 C.2       1 NON         0.0691
     25 N25        83.1890   21.1160    3.8770 N.pl3     1 NON        -0.2187
     26 N26        82.8400   20.4790    2.7940 N.2       1 NON        -0.2257
     27 C28        84.8440   21.4970    2.3840 C.2       1 NON        -0.0431
     28 C27        83.8090   20.7060    1.9070 C.2       1 NON         0.0245
     29 C29        83.6820   20.1190    0.6450 C.ar      1 NON        -0.0030
     30 C34        84.8190   19.5150   -0.1040 C.ar      1 NON         0.0609
     31 CL36       86.5010   19.5270    0.5070 Cl        1 NON        -0.0696
     32 C30        82.4080   20.0420    0.0720 C.ar      1 NON        -0.0547
     33 C31        82.1900   19.4470   -1.1740 C.ar      1 NON        -0.0616
     34 C32        83.2320   18.8840   -1.9120 C.ar      1 NON        -0.0482
     35 C33        84.5350   18.8940   -1.4240 C.ar      1 NON         0.0539
     36 CL35       85.8690   18.1590   -2.3690 Cl        1 NON        -0.0703
     37 H1         94.9448   18.6892    8.8090 H         1 NON         0.2615
     38 H2         93.8122   18.9479   10.1629 H         1 NON         0.2615
     39 H3         94.6703   21.9870    7.5802 H         1 NON         0.2615
     40 H4         95.4266   20.3850    7.3695 H         1 NON         0.2615
     41 H5         93.2849   21.2264   10.6745 H         1 NON         0.2671
     42 H6         92.8179   22.5673    8.0346 H         1 NON         0.0977
     43 H7         92.4371   23.3572   10.9398 H         1 NON         0.0363
     44 H8         94.2068   24.4385    8.6997 H         1 NON         0.0271
     45 H9         94.7375   23.4552   10.1061 H         1 NON         0.0271
     46 H10        95.1909   25.9116   10.3554 H         1 NON         0.0265
     47 H11        94.1477   25.2308   11.6496 H         1 NON         0.0265
     48 H12        93.2845   26.9067    9.2455 H         1 NON         0.0265
     49 H13        93.2291   27.3667   10.9810 H         1 NON         0.0265
     50 H14        90.9955   26.7076   10.0423 H         1 NON         0.0265
     51 H15        91.5213   25.6922   11.4276 H         1 NON         0.0265
     52 H16        90.5641   24.2865    9.6564 H         1 NON         0.0271
     53 H17        91.7130   24.9748    8.4593 H         1 NON         0.0271
     54 H18        90.9220   21.7382    6.9401 H         1 NON         0.1881
     55 H19        89.0694   23.2002    8.5216 H         1 NON         0.0763
     56 H20        88.5103   21.6643    7.7764 H         1 NON         0.0763
     57 H21        85.7468   22.9579    7.4062 H         1 NON         0.0524
     58 H22        86.9723   21.6461    7.4711 H         1 NON         0.0524
     59 H23        84.8947   21.0483    6.1577 H         1 NON         0.0313
     60 H24        86.4213   20.9262    5.2191 H         1 NON         0.0313
     61 H25        87.8627   24.7128    4.7092 H         1 NON         0.0524
     62 H26        86.3172   24.9440    5.5950 H         1 NON         0.0524
     63 H27        86.9580   22.8021    3.4978 H         1 NON         0.0313
     64 H28        85.7947   24.1624    3.3460 H         1 NON         0.0313
     65 H29        84.4305   23.2429    5.1353 H         1 NON         0.0509
     66 H30        82.6472   21.1413    4.7526 H         1 NON         0.2551
     67 H31        85.7582   21.8327    1.8967 H         1 NON         0.0250
     68 H32        81.5638   20.4566    0.6110 H         1 NON         0.0617
     69 H33        81.1843   19.4223   -1.5779 H         1 NON         0.0617
     70 H34        83.0240   18.4340   -2.8760 H         1 NON         0.0616
@<TRIPOS>BOND
     1    1    2 ar 
     2    2    3 ar 
     3    2    4 ar 
     4    4    5 1  
     5    5    6 1  
     6    5   12 1  
     7    6    7 1  
     8    6   11 1  
     9    7    8 1  
    10    8    9 1  
    11    9   10 1  
    12   10   11 1  
    13   12   13 2  
    14   12   14 am 
    15   14   15 1  
    16   15   16 1  
    17   16   17 2  
    18   16   18 am 
    19   18   19 1  
    20   18   21 1  
    21   19   20 1  
    22   20   23 1  
    23   21   22 1  
    24   22   23 1  
    25   23   24 1  
    26   24   25 1  
    27   24   27 2  
    28   25   26 1  
    29   26   28 2  
    30   27   28 1  
    31   28   29 1  
    32   29   30 ar 
    33   29   32 ar 
    34   30   31 1  
    35   30   35 ar 
    36   32   33 ar 
    37   33   34 ar 
    38   34   35 ar 
    39   35   36 1  
    40    1   37 1  
    41    1   38 1  
    42    3   39 1  
    43    3   40 1  
    44    4   41 1  
    45    5   42 1  
    46    6   43 1  
    47    7   44 1  
    48    7   45 1  
    49    8   46 1  
    50    8   47 1  
    51    9   48 1  
    52    9   49 1  
    53   10   50 1  
    54   10   51 1  
    55   11   52 1  
    56   11   53 1  
    57   14   54 1  
    58   15   55 1  
    59   15   56 1  
    60   19   57 1  
    61   19   58 1  
    62   20   59 1  
    63   20   60 1  
    64   21   61 1  
    65   21   62 1  
    66   22   63 1  
    67   22   64 1  
    68   23   65 1  
    69   25   66 1  
    70   27   67 1  
    71   32   68 1  
    72   33   69 1  
    73   34   70 1  
@<TRIPOS>SUBSTRUCTURE
     1 NON         1

