### 
### Created by X-TOOL on Mon Sep 10 21:12:52 2018
### 

@<TRIPOS>MOLECULE
1pwp_ligand
   48    51     1     0     0
SMALL
GAST_HUCK


@<TRIPOS>ATOM
      1 C12        86.5010   37.8380  135.8300 C.ar      1 NSC        -0.0332
      2 C3         87.1650   37.0570  134.8560 C.ar      1 NSC         0.0107
      3 C2         88.4970   37.3280  134.4960 C.ar      1 NSC         0.0577
      4 N1         89.1700   38.3190  135.0860 N.pl3     1 NSC        -0.3261
      5 C7         89.1190   36.5490  133.5040 C.ar      1 NSC        -0.0204
      6 C6         88.4000   35.5100  132.8860 C.ar      1 NSC        -0.0024
      7 C8         89.0620   34.6590  131.7990 C.3       1 NSC        -0.0211
      8 N5         87.1110   35.2610  133.2490 N.ar      1 NSC        -0.3321
      9 C4         86.4800   35.9970  134.2060 C.ar      1 NSC         0.0122
     10 C9         85.1410   35.7210  134.5360 C.ar      1 NSC        -0.0548
     11 C10        84.4790   36.5020  135.5050 C.ar      1 NSC        -0.0349
     12 C11        85.1460   37.5650  136.1560 C.ar      1 NSC         0.0687
     13 N13        84.4550   38.2960  137.0620 N.am      1 NSC        -0.2153
     14 C14        84.9220   39.3400  137.7740 C.2       1 NSC         0.3160
     15 O28        86.0810   39.7560  137.6570 O.2       1 NSC        -0.3806
     16 N15        84.0270   39.9120  138.6070 N.am      1 NSC        -0.2153
     17 C16        84.2500   40.9560  139.4400 C.ar      1 NSC         0.0687
     18 C17        85.5420   41.5190  139.6380 C.ar      1 NSC        -0.0332
     19 C18        85.7340   42.5280  140.6110 C.ar      1 NSC         0.0107
     20 C24        87.0050   43.0810  140.8490 C.ar      1 NSC         0.0577
     21 N25        88.0620   42.6830  140.1420 N.pl3     1 NSC        -0.3261
     22 C23        87.1610   44.0620  141.8430 C.ar      1 NSC        -0.0204
     23 C21        86.0430   44.4780  142.5860 C.ar      1 NSC        -0.0024
     24 C20        86.2000   45.5460  143.6720 C.3       1 NSC        -0.0211
     25 N22        84.8200   43.9330  142.3410 N.ar      1 NSC        -0.3321
     26 C19        84.6380   42.9810  141.3850 C.ar      1 NSC         0.0122
     27 C26        83.3630   42.4280  141.1790 C.ar      1 NSC        -0.0548
     28 C27        83.1700   41.4220  140.2150 C.ar      1 NSC        -0.0349
     29 H1         87.0262   38.6451  136.3278 H         1 NSC         0.0476
     30 H2         90.1454   38.5110  134.8165 H         1 NSC         0.1797
     31 H3         88.7137   38.8914  135.8106 H         1 NSC         0.1797
     32 H4         90.1454   36.7479  133.2176 H         1 NSC         0.0483
     33 H5         88.3478   33.9039  131.4388 H         1 NSC         0.0419
     34 H6         89.9478   34.1568  132.2151 H         1 NSC         0.0419
     35 H7         89.3659   35.3048  130.9620 H         1 NSC         0.0419
     36 H8         84.6182   34.9080  134.0454 H         1 NSC         0.0584
     37 H9         83.4465   36.2850  135.7539 H         1 NSC         0.0582
     38 H10        83.5024   38.0349  137.2184 H         1 NSC         0.2256
     39 H11        83.1049   39.5251  138.6091 H         1 NSC         0.2256
     40 H12        86.3798   41.1744  139.0427 H         1 NSC         0.0476
     41 H13        88.9883   43.0947  140.3246 H         1 NSC         0.1797
     42 H14        87.9527   41.9637  139.4129 H         1 NSC         0.1797
     43 H15        88.1362   44.4945  142.0352 H         1 NSC         0.0483
     44 H16        85.2236   45.7387  144.1406 H         1 NSC         0.0419
     45 H17        86.5798   46.4746  143.2209 H         1 NSC         0.0419
     46 H18        86.9092   45.1920  144.4347 H         1 NSC         0.0419
     47 H19        82.5225   42.7789  141.7668 H         1 NSC         0.0584
     48 H20        82.1817   41.0018  140.0672 H         1 NSC         0.0582
@<TRIPOS>BOND
     1    1    2 ar 
     2    1   12 ar 
     3    2    3 ar 
     4    2    9 ar 
     5    3    4 1  
     6    3    5 ar 
     7    5    6 ar 
     8    6    7 1  
     9    6    8 ar 
    10    8    9 ar 
    11    9   10 ar 
    12   10   11 ar 
    13   11   12 ar 
    14   12   13 1  
    15   13   14 am 
    16   14   15 2  
    17   14   16 am 
    18   16   17 1  
    19   17   18 ar 
    20   17   28 ar 
    21   18   19 ar 
    22   19   20 ar 
    23   19   26 ar 
    24   20   21 1  
    25   20   22 ar 
    26   22   23 ar 
    27   23   24 1  
    28   23   25 ar 
    29   25   26 ar 
    30   26   27 ar 
    31   27   28 ar 
    32    1   29 1  
    33    4   30 1  
    34    4   31 1  
    35    5   32 1  
    36    7   33 1  
    37    7   34 1  
    38    7   35 1  
    39   10   36 1  
    40   11   37 1  
    41   13   38 1  
    42   16   39 1  
    43   18   40 1  
    44   21   41 1  
    45   21   42 1  
    46   22   43 1  
    47   24   44 1  
    48   24   45 1  
    49   24   46 1  
    50   27   47 1  
    51   28   48 1  
@<TRIPOS>SUBSTRUCTURE
     1 NSC         1

