### 
### Created by X-TOOL on Mon Sep 10 21:12:52 2018
### 

@<TRIPOS>MOLECULE
1pwq_ligand
   62    63     1     0     0
SMALL
GAST_HUCK


@<TRIPOS>ATOM
      1 CBE        83.7610   36.0930  128.6780 C.3       1 SD2        -0.0181
      2 SBD        82.2840   35.2840  128.0820 S.3       1 SD2        -0.1639
      3 CBC        81.7350   34.2010  129.4330 C.3       1 SD2        -0.0024
      4 CBB        82.4670   33.0750  129.7270 C.3       1 SD2        -0.0034
      5 CAY        82.0390   32.1700  130.8760 C.3       1 SD2         0.1314
      6 CAZ        82.7660   30.8350  130.6920 C.2       1 SD2         0.1992
      7 OBA        84.0040   30.7710  130.7620 O.2       1 SD2        -0.3947
      8 NBF        81.9820   29.7920  130.4610 N.am      1 SD2        -0.2990
      9 NAX        82.6900   32.8260  131.9590 N.am      1 SD2        -0.2637
     10 CAS        82.3920   33.2210  133.1730 C.2       1 SD2         0.2041
     11 OAT        81.3580   33.0930  133.8210 O.2       1 SD2        -0.3944
     12 CAR        83.6330   33.8680  133.7270 C.3       1 SD2         0.1338
     13 CAU        84.7050   32.7810  133.8640 C.3       1 SD2        -0.0104
     14 CAV        85.4210   33.1050  135.1630 C.3       1 SD2        -0.0281
     15 CAW        84.3380   33.7200  136.0450 C.3       1 SD2         0.0369
     16 NAQ        83.4810   34.3890  135.0650 N.am      1 SD2        -0.2497
     17 CAG        82.7760   35.4920  135.3120 C.2       1 SD2         0.2082
     18 OAH        82.2080   36.0600  134.3810 O.2       1 SD2        -0.3940
     19 CAF        82.6360   36.0290  136.7370 C.3       1 SD2         0.1392
     20 NAA        83.0350   37.4480  136.7800 N.am      1 SD2        -0.2634
     21 CAB        83.4060   38.0410  137.9170 C.2       1 SD2         0.1880
     22 OAC        83.4450   37.4730  139.0090 O.2       1 SD2        -0.3960
     23 CAD        83.7810   39.5160  137.7920 C.3       1 SD2         0.0804
     24 SAE        82.9520   40.5070  139.0970 S.3       1 SD2        -0.1565
     25 CAI        81.1750   35.8690  137.2100 C.3       1 SD2         0.0164
     26 CAJ        80.8590   34.4110  137.5650 C.ar      1 SD2        -0.0493
     27 CAK        80.8480   34.0140  138.9110 C.ar      1 SD2        -0.0685
     28 CAM        80.6730   32.6610  139.2480 C.ar      1 SD2        -0.0398
     29 CAO        80.5030   31.7030  138.2360 C.ar      1 SD2         0.0805
     30 OAP        80.3900   30.3830  138.5580 O.3       1 SD2        -0.3376
     31 CAN        80.5000   32.1040  136.8900 C.ar      1 SD2        -0.0398
     32 CAL        80.6730   33.4580  136.5560 C.ar      1 SD2        -0.0685
     33 H1         84.1477   36.7689  127.9011 H         1 SD2         0.0340
     34 H2         84.5224   35.3361  128.9176 H         1 SD2         0.0340
     35 H3         83.5224   36.6722  129.5822 H         1 SD2         0.0340
     36 H4         80.7169   33.8671  129.1843 H         1 SD2         0.0378
     37 H5         81.7071   34.8141  130.3459 H         1 SD2         0.0378
     38 H6         83.4906   33.4102  129.9504 H         1 SD2         0.0320
     39 H7         82.4744   32.4542  128.8189 H         1 SD2         0.0320
     40 H8         80.9505   32.0605  130.9906 H         1 SD2         0.0800
     41 H9         82.3822   28.8850  130.3299 H         1 SD2         0.1815
     42 H10        80.9902   29.9119  130.4177 H         1 SD2         0.1815
     43 H11        83.6380   33.0468  131.7300 H         1 SD2         0.1883
     44 H12        83.9601   34.6685  133.0472 H         1 SD2         0.0802
     45 H13        85.4048   32.8177  133.0161 H         1 SD2         0.0313
     46 H14        84.2422   31.7844  133.9147 H         1 SD2         0.0313
     47 H15        86.2370   33.8221  134.9902 H         1 SD2         0.0287
     48 H16        85.8266   32.1919  135.6230 H         1 SD2         0.0287
     49 H17        84.7660   34.4404  136.7576 H         1 SD2         0.0524
     50 H18        83.7843   32.9449  136.5951 H         1 SD2         0.0524
     51 H19        83.2935   35.4528  137.4045 H         1 SD2         0.0821
     52 H20        83.0274   37.9809  135.9339 H         1 SD2         0.1884
     53 H21        83.4688   39.8859  136.8042 H         1 SD2         0.0613
     54 H22        84.8710   39.6219  137.8955 H         1 SD2         0.0613
     55 H23        81.9526   40.4146  139.0034 H         1 SD2         0.1043
     56 H24        80.5003   36.1958  136.4051 H         1 SD2         0.0453
     57 H25        81.0158   36.4965  138.0993 H         1 SD2         0.0453
     58 H26        80.9749   34.7535  139.6934 H         1 SD2         0.0530
     59 H27        80.6693   32.3573  140.2886 H         1 SD2         0.0525
     60 H28        80.2814   29.8727  137.7641 H         1 SD2         0.2458
     61 H29        80.3639   31.3671  136.1067 H         1 SD2         0.0525
     62 H30        80.6625   33.7650  135.5164 H         1 SD2         0.0530
@<TRIPOS>BOND
     1    1    2 1  
     2    2    3 1  
     3    3    4 1  
     4    4    5 1  
     5    5    6 1  
     6    5    9 1  
     7    6    7 2  
     8    6    8 am 
     9    9   10 am 
    10   10   11 2  
    11   10   12 1  
    12   12   13 1  
    13   12   16 1  
    14   13   14 1  
    15   14   15 1  
    16   15   16 1  
    17   16   17 am 
    18   17   18 2  
    19   17   19 1  
    20   19   20 1  
    21   19   25 1  
    22   20   21 am 
    23   21   22 2  
    24   21   23 1  
    25   23   24 1  
    26   25   26 1  
    27   26   27 ar 
    28   26   32 ar 
    29   27   28 ar 
    30   28   29 ar 
    31   29   30 1  
    32   29   31 ar 
    33   31   32 ar 
    34    1   33 1  
    35    1   34 1  
    36    1   35 1  
    37    3   36 1  
    38    3   37 1  
    39    4   38 1  
    40    4   39 1  
    41    5   40 1  
    42    8   41 1  
    43    8   42 1  
    44    9   43 1  
    45   12   44 1  
    46   13   45 1  
    47   13   46 1  
    48   14   47 1  
    49   14   48 1  
    50   15   49 1  
    51   15   50 1  
    52   19   51 1  
    53   20   52 1  
    54   23   53 1  
    55   23   54 1  
    56   24   55 1  
    57   25   56 1  
    58   25   57 1  
    59   27   58 1  
    60   28   59 1  
    61   30   60 1  
    62   31   61 1  
    63   32   62 1  
@<TRIPOS>SUBSTRUCTURE
     1 SD2         1

