### 
### Created by X-TOOL on Mon Sep 10 21:12:52 2018
### 

@<TRIPOS>MOLECULE
1pwu_ligand
   56    57     1     0     0
SMALL
GAST_HUCK


@<TRIPOS>ATOM
      1 OAG        83.0400   40.3340  139.6050 O.3       1 GM6        -0.2717
      2 NAF        82.8470   39.7140  138.4090 N.am      1 GM6        -0.1641
      3 CAD        83.4510   38.5590  138.1410 C.2       1 GM6         0.2013
      4 OAE        84.2060   37.9780  138.9180 O.2       1 GM6        -0.3968
      5 CAC        83.1440   37.9800  136.7580 C.3       1 GM6         0.0585
      6 CAB        83.0880   36.4500  136.7520 C.3       1 GM6         0.0657
      7 CAK        82.9290   35.9770  135.3050 C.2       1 GM6         0.1836
      8 OAL        81.9300   36.2720  134.6480 O.2       1 GM6        -0.3965
      9 NAM        83.9380   35.2420  134.8450 N.am      1 GM6        -0.2642
     10 CAN        84.0040   34.7120  133.4740 C.3       1 GM6         0.1350
     11 CAY        82.8580   33.7340  133.1990 C.2       1 GM6         0.2027
     12 OAZ        82.7720   32.6730  133.8090 O.2       1 GM6        -0.3944
     13 NBB        81.9870   34.1380  132.2750 N.am      1 GM6        -0.2880
     14 CBA        82.2120   33.6980  130.8910 C.3       1 GM6         0.0196
     15 CAO        85.3460   34.0060  133.2670 C.3       1 GM6         0.0042
     16 CAP        86.5130   34.9570  133.5530 C.2       1 GM6        -0.0418
     17 CAT        87.2120   35.0510  134.6840 C.2       1 GM6         0.0167
     18 NAU        88.1280   36.0140  134.5890 N.pl3     1 GM6        -0.2890
     19 CAR        88.0720   36.5930  133.3890 C.ar      1 GM6         0.0603
     20 CAV        88.7810   37.6230  132.7800 C.ar      1 GM6        -0.0443
     21 CAX        88.4640   37.9950  131.4760 C.ar      1 GM6        -0.0768
     22 CAW        87.4440   37.3330  130.7970 C.ar      1 GM6        -0.0792
     23 CAS        86.7420   36.3060  131.4170 C.ar      1 GM6        -0.0747
     24 CAQ        87.0520   35.9260  132.7260 C.ar      1 GM6        -0.0214
     25 CAA        81.9410   35.9560  137.6390 C.3       1 GM6        -0.0288
     26 CAH        82.0860   34.4710  137.9870 C.3       1 GM6        -0.0443
     27 CAJ        81.7850   33.5750  136.7830 C.3       1 GM6        -0.0625
     28 CAI        81.1490   34.1110  139.1410 C.3       1 GM6        -0.0625
     29 H1         82.5376   41.1400  139.6273 H         1 GM6         0.2490
     30 H2         82.2464   40.1298  137.7260 H         1 GM6         0.2216
     31 H3         83.9287   38.3052  136.0592 H         1 GM6         0.0529
     32 H4         82.1708   38.3682  136.4230 H         1 GM6         0.0529
     33 H5         84.0328   36.0540  137.1527 H         1 GM6         0.0563
     34 H6         84.6946   35.0382  135.4663 H         1 GM6         0.1884
     35 H7         83.9274   35.5513  132.7671 H         1 GM6         0.0815
     36 H8         81.2091   34.7190  132.5145 H         1 GM6         0.1848
     37 H9         81.4209   34.1046  130.2438 H         1 GM6         0.0484
     38 H10        82.1922   32.5990  130.8478 H         1 GM6         0.0484
     39 H11        83.1912   34.0610  130.5454 H         1 GM6         0.0484
     40 H12        85.4127   33.6568  132.2260 H         1 GM6         0.0397
     41 H13        85.4085   33.1441  133.9476 H         1 GM6         0.0397
     42 H14        87.0562   34.4276  135.5632 H         1 GM6         0.0795
     43 H15        88.7865   36.2745  135.3370 H         1 GM6         0.2216
     44 H16        89.5739   38.1320  133.3160 H         1 GM6         0.0541
     45 H17        89.0091   38.7968  130.9912 H         1 GM6         0.0530
     46 H18        87.1967   37.6197  129.7813 H         1 GM6         0.0510
     47 H19        85.9489   35.7964  130.8819 H         1 GM6         0.0540
     48 H20        80.9901   36.1051  137.1065 H         1 GM6         0.0296
     49 H21        81.9350   36.5405  138.5708 H         1 GM6         0.0296
     50 H22        83.1235   34.2897  138.3042 H         1 GM6         0.0297
     51 H23        81.8998   32.5202  137.0732 H         1 GM6         0.0232
     52 H24        82.4851   33.8092  135.9675 H         1 GM6         0.0232
     53 H25        80.7538   33.7516  136.4432 H         1 GM6         0.0232
     54 H26        81.3669   34.7559  140.0051 H         1 GM6         0.0232
     55 H27        81.3006   33.0583  139.4217 H         1 GM6         0.0232
     56 H28        80.1056   34.2599  138.8263 H         1 GM6         0.0232
@<TRIPOS>BOND
     1    1    2 1  
     2    2    3 am 
     3    3    4 2  
     4    3    5 1  
     5    5    6 1  
     6    6    7 1  
     7    6   25 1  
     8    7    8 2  
     9    7    9 am 
    10    9   10 1  
    11   10   11 1  
    12   10   15 1  
    13   11   12 2  
    14   11   13 am 
    15   13   14 1  
    16   15   16 1  
    17   16   17 2  
    18   16   24 1  
    19   17   18 1  
    20   18   19 1  
    21   19   20 ar 
    22   19   24 ar 
    23   20   21 ar 
    24   21   22 ar 
    25   22   23 ar 
    26   23   24 ar 
    27   25   26 1  
    28   26   27 1  
    29   26   28 1  
    30    1   29 1  
    31    2   30 1  
    32    5   31 1  
    33    5   32 1  
    34    6   33 1  
    35    9   34 1  
    36   10   35 1  
    37   13   36 1  
    38   14   37 1  
    39   14   38 1  
    40   14   39 1  
    41   15   40 1  
    42   15   41 1  
    43   17   42 1  
    44   18   43 1  
    45   20   44 1  
    46   21   45 1  
    47   22   46 1  
    48   23   47 1  
    49   25   48 1  
    50   25   49 1  
    51   26   50 1  
    52   27   51 1  
    53   27   52 1  
    54   27   53 1  
    55   28   54 1  
    56   28   55 1  
    57   28   56 1  
@<TRIPOS>SUBSTRUCTURE
     1 GM6         1

