### 
### Created by X-TOOL on Mon Sep 10 21:12:51 2018
### 

@<TRIPOS>MOLECULE
1pwy_ligand
   27    28     1     0     0
SMALL
GAST_HUCK


@<TRIPOS>ATOM
      1 C3        -19.3880   88.0670    3.3680 C.3       1 AC2         0.0677
      2 O3        -19.8230   88.8400    2.2120 O.3       1 AC2        -0.3927
      3 C2        -17.8650   88.0310    3.4480 C.3       1 AC2         0.0739
      4 O1        -17.3560   86.6730    3.1910 O.3       1 AC2        -0.3477
      5 C1        -17.8960   86.1300    1.9670 C.3       1 AC2         0.1595
      6 N9        -17.6500   87.0430    0.8570 N.pl3     1 AC2        -0.2153
      7 C8        -18.5630   87.7630    0.1170 C.2       1 AC2         0.0954
      8 N7        -18.0080   88.5060   -0.8110 N.2       1 AC2        -0.3235
      9 C5        -16.6450   88.2510   -0.6650 C.2       1 AC2         0.0926
     10 C6        -15.5280   88.7670   -1.3780 C.2       1 AC2         0.2135
     11 O6        -15.5220   89.5730   -2.3110 O.2       1 AC2        -0.4091
     12 N1        -14.3240   88.2410   -0.9030 N.am      1 AC2        -0.1839
     13 C2        -14.2140   87.3420    0.1270 C.2       1 AC2         0.2340
     14 N2        -12.9920   86.9540    0.4440 N.pl3     1 AC2        -0.2807
     15 N3        -15.2400   86.8600    0.7990 N.2       1 AC2        -0.2765
     16 C4        -16.4140   87.3540    0.3550 C.2       1 AC2         0.1155
     17 H1        -19.7697   87.0391    3.2799 H         1 AC2         0.0580
     18 H2        -19.7871   88.5292    4.2829 H         1 AC2         0.0580
     19 H3        -19.4821   88.4418    1.4197 H         1 AC2         0.2095
     20 H4        -17.5497   88.3494    4.4526 H         1 AC2         0.0584
     21 H5        -17.4488   88.7193    2.6977 H         1 AC2         0.0584
     22 H6        -18.9800   85.9827    2.0824 H         1 AC2         0.0932
     23 H7        -17.4151   85.1636    1.7554 H         1 AC2         0.0932
     24 H8        -19.6380   87.7195    0.2858 H         1 AC2         0.1179
     25 H9        -13.4800   88.5422   -1.3468 H         1 AC2         0.2515
     26 H10       -12.8480   86.2801    1.2095 H         1 AC2         0.1897
     27 H11       -12.1830   87.3254   -0.0742 H         1 AC2         0.1897
@<TRIPOS>BOND
     1    1    2 1  
     2    1    3 1  
     3    3    4 1  
     4    4    5 1  
     5    5    6 1  
     6    6    7 1  
     7    6   16 1  
     8    7    8 2  
     9    8    9 1  
    10    9   10 1  
    11    9   16 2  
    12   10   11 2  
    13   10   12 am 
    14   12   13 am 
    15   13   14 1  
    16   13   15 2  
    17   15   16 1  
    18    1   17 1  
    19    1   18 1  
    20    2   19 1  
    21    3   20 1  
    22    3   21 1  
    23    5   22 1  
    24    5   23 1  
    25    7   24 1  
    26   12   25 1  
    27   14   26 1  
    28   14   27 1  
@<TRIPOS>SUBSTRUCTURE
     1 AC2         1

