### 
### Created by X-TOOL on Mon Sep 10 21:12:51 2018
### 

@<TRIPOS>MOLECULE
1px4_ligand
   33    33     1     0     0
SMALL
GAST_HUCK


@<TRIPOS>ATOM
      1 C1        -13.4220  -28.7450  -27.5670 C.3       1 IPT         0.1332
      2 C2        -12.1800  -28.5480  -26.7120 C.3       1 IPT         0.1189
      3 O2        -12.3240  -27.3940  -25.8730 O.3       1 IPT        -0.3857
      4 C3        -10.9600  -28.3510  -27.5820 C.3       1 IPT         0.1126
      5 O3         -9.7790  -28.3520  -26.7440 O.3       1 IPT        -0.3865
      6 C4        -10.8350  -29.4890  -28.6090 C.3       1 IPT         0.1118
      7 O4        -10.6400  -30.7350  -27.9070 O.3       1 IPT        -0.3865
      8 C5        -12.1800  -29.5300  -29.3410 C.3       1 IPT         0.1115
      9 O5        -13.2040  -29.8530  -28.4130 O.3       1 IPT        -0.3553
     10 C6        -12.3400  -30.7780  -30.1850 C.3       1 IPT         0.0730
     11 O6        -11.3190  -30.6160  -31.2070 O.3       1 IPT        -0.3924
     12 S1        -14.7330  -29.2640  -26.4290 S.3       1 IPT        -0.1243
     13 C1'       -16.2740  -28.7490  -27.3190 C.3       1 IPT         0.0021
     14 C2'       -17.4530  -28.7770  -26.3550 C.3       1 IPT        -0.0535
     15 C3'       -16.5630  -29.6810  -28.5180 C.3       1 IPT        -0.0535
     16 H1        -13.6843  -27.8372  -28.1302 H         1 IPT         0.0740
     17 H2        -12.0373  -29.4391  -26.0830 H         1 IPT         0.0655
     18 H3        -11.5402  -27.2865  -25.3469 H         1 IPT         0.2100
     19 H4        -11.0405  -27.3894  -28.1100 H         1 IPT         0.0647
     20 H5         -9.7169  -29.1827  -26.2872 H         1 IPT         0.2100
     21 H6        -10.0061  -29.3061  -29.3086 H         1 IPT         0.0647
     22 H7        -11.3833  -30.8962  -27.3379 H         1 IPT         0.2100
     23 H8        -12.3528  -28.5977  -29.8986 H         1 IPT         0.0646
     24 H9        -13.3434  -30.8261  -30.6331 H         1 IPT         0.0584
     25 H10       -12.1612  -31.6844  -29.5880 H         1 IPT         0.0584
     26 H11       -11.4867  -29.8196  -31.6971 H         1 IPT         0.2095
     27 H12       -16.1402  -27.7232  -27.6930 H         1 IPT         0.0407
     28 H13       -18.3671  -28.4710  -26.8848 H         1 IPT         0.0240
     29 H14       -17.2624  -28.0839  -25.5224 H         1 IPT         0.0240
     30 H15       -17.5810  -29.7963  -25.9617 H         1 IPT         0.0240
     31 H16       -17.4815  -29.3513  -29.0256 H         1 IPT         0.0240
     32 H17       -16.6931  -30.7122  -28.1579 H         1 IPT         0.0240
     33 H18       -15.7201  -29.6427  -29.2237 H         1 IPT         0.0240
@<TRIPOS>BOND
     1    1    2 1  
     2    1    9 1  
     3    1   12 1  
     4    2    3 1  
     5    2    4 1  
     6    4    5 1  
     7    4    6 1  
     8    6    7 1  
     9    6    8 1  
    10    8    9 1  
    11    8   10 1  
    12   10   11 1  
    13   12   13 1  
    14   13   14 1  
    15   13   15 1  
    16    1   16 1  
    17    2   17 1  
    18    3   18 1  
    19    4   19 1  
    20    5   20 1  
    21    6   21 1  
    22    7   22 1  
    23    8   23 1  
    24   10   24 1  
    25   10   25 1  
    26   11   26 1  
    27   13   27 1  
    28   14   28 1  
    29   14   29 1  
    30   14   30 1  
    31   15   31 1  
    32   15   32 1  
    33   15   33 1  
@<TRIPOS>SUBSTRUCTURE
     1 IPT         1

