### 
### Created by X-TOOL on Mon Sep 10 21:12:50 2018
### 

@<TRIPOS>MOLECULE
1pxi_ligand
   19    20     1     0     0
SMALL
GAST_HUCK


@<TRIPOS>ATOM
      1 CL7A       14.1710   44.2750   29.7290 Cl        1 CK1        -0.0580
      2 C3A        13.9210   43.8330   28.1520 C.2       1 CK1         0.0971
      3 C4A        13.5610   44.8640   27.1930 C.2       1 CK1        -0.0496
      4 S2A        14.0410   42.2850   27.5350 S.3       1 CK1        -0.0080
      5 C1A        13.6360   42.9200   26.0360 C.2       1 CK1         0.1179
      6 CL6A       13.5570   41.8900   24.8440 Cl        1 CK1        -0.0424
      7 C5A        13.3880   44.2500   25.9070 C.2       1 CK1         0.0076
      8 C4         13.0440   45.0630   24.7370 C.ar      1 CK1         0.0385
      9 N3         13.6210   44.9160   23.5010 N.ar      1 CK1        -0.2598
     10 C5         12.0360   46.0840   24.8510 C.ar      1 CK1        -0.0241
     11 C6         11.7180   46.8850   23.7250 C.ar      1 CK1         0.0077
     12 N1         12.3890   46.5950   22.5350 N.ar      1 CK1        -0.2618
     13 C2         13.3000   45.6930   22.5060 C.ar      1 CK1         0.1805
     14 N7         13.8560   45.4570   21.3100 N.pl3     1 CK1        -0.3043
     15 H1         13.4424   45.9239   27.4130 H         1 CK1         0.0435
     16 H2         11.5225   46.2398   25.7929 H         1 CK1         0.0632
     17 H3         10.9886   47.6846   23.7850 H         1 CK1         0.0873
     18 H4         14.5942   44.7447   21.2168 H         1 CK1         0.1824
     19 H5         13.5452   45.9878   20.4838 H         1 CK1         0.1824
@<TRIPOS>BOND
     1    2    1 1  
     2    2    3 2  
     3    2    4 1  
     4    3    7 1  
     5    4    5 1  
     6    5    6 1  
     7    5    7 2  
     8    7    8 1  
     9    8    9 ar 
    10    8   10 ar 
    11    9   13 ar 
    12   10   11 ar 
    13   11   12 ar 
    14   12   13 ar 
    15   13   14 1  
    16    3   15 1  
    17   10   16 1  
    18   11   17 1  
    19   14   18 1  
    20   14   19 1  
@<TRIPOS>SUBSTRUCTURE
     1 CK1         1

