### 
### Created by X-TOOL on Mon Sep 10 21:12:50 2018
### 

@<TRIPOS>MOLECULE
1pxj_ligand
   24    25     1     0     0
SMALL
GAST_HUCK


@<TRIPOS>ATOM
      1 C7A        14.4000   43.3310   29.0850 C.3       1 CK2         0.0113
      2 C3A        13.9480   43.7450   27.6850 C.2       1 CK2         0.0971
      3 S4A        13.4540   45.2330   27.1460 S.3       1 CK2        -0.0005
      4 N2A        13.8950   42.9200   26.7630 N.2       1 CK2        -0.2960
      5 C1A        13.4850   43.3560   25.5740 C.2       1 CK2         0.0145
      6 C6A        13.4950   42.3130   24.6240 C.3       1 CK2        -0.0221
      7 C5A        13.2010   44.6390   25.5290 C.2       1 CK2         0.0667
      8 C4         12.7490   45.4560   24.4000 C.ar      1 CK2         0.0414
      9 N3         13.2620   45.2730   23.1870 N.ar      1 CK2        -0.2688
     10 C5         11.8000   46.4490   24.6390 C.ar      1 CK2        -0.0299
     11 C6         11.4150   47.1810   23.5420 C.ar      1 CK2         0.0014
     12 N1         11.9380   46.9580   22.3100 N.ar      1 CK2        -0.2690
     13 C2         12.8270   45.9970   22.2500 C.ar      1 CK2         0.1728
     14 N7         13.3040   45.7030   21.0790 N.pl3     1 CK2        -0.3056
     15 H1         14.6577   42.2616   29.0858 H         1 CK2         0.0510
     16 H2         13.5856   43.5124   29.8019 H         1 CK2         0.0510
     17 H3         15.2820   43.9209   29.3750 H         1 CK2         0.0510
     18 H4         13.1528   42.6988   23.6524 H         1 CK2         0.0414
     19 H5         12.8229   41.5080   24.9561 H         1 CK2         0.0414
     20 H6         14.5170   41.9190   24.5227 H         1 CK2         0.0414
     21 H7         11.3922   46.6317   25.6266 H         1 CK2         0.0598
     22 H8         10.6712   47.9600   23.6643 H         1 CK2         0.0851
     23 H9         14.0052   44.9548   20.9815 H         1 CK2         0.1823
     24 H10        12.9813   46.2179   20.2474 H         1 CK2         0.1823
@<TRIPOS>BOND
     1    1    2 1  
     2    2    3 1  
     3    2    4 2  
     4    3    7 1  
     5    4    5 1  
     6    5    6 1  
     7    5    7 2  
     8    7    8 1  
     9    8    9 ar 
    10    8   10 ar 
    11    9   13 ar 
    12   10   11 ar 
    13   11   12 ar 
    14   12   13 ar 
    15   13   14 1  
    16    1   15 1  
    17    1   16 1  
    18    1   17 1  
    19    6   18 1  
    20    6   19 1  
    21    6   20 1  
    22   10   21 1  
    23   11   22 1  
    24   14   23 1  
    25   14   24 1  
@<TRIPOS>SUBSTRUCTURE
     1 CK2         1

