### 
### Created by X-TOOL on Mon Sep 10 21:12:50 2018
### 

@<TRIPOS>MOLECULE
1pxk_ligand
   28    29     1     0     0
SMALL
GAST_HUCK


@<TRIPOS>ATOM
      1 C7A        14.3120   42.2420   26.9790 C.3       1 CK3         0.0113
      2 C3A        14.1550   42.9920   25.6730 C.2       1 CK3         0.0971
      3 S4A        12.9300   44.1670   25.5040 S.3       1 CK3        -0.0005
      4 N2A        14.9270   42.8010   24.6050 N.2       1 CK3        -0.2960
      5 C1A        14.5260   43.6310   23.5830 C.2       1 CK3         0.0145
      6 C6A        15.3100   43.5460   22.2780 C.3       1 CK3        -0.0221
      7 C5A        13.4530   44.4740   23.8750 C.2       1 CK3         0.0670
      8 C4         12.7070   45.4480   23.1360 C.ar      1 CK3         0.0426
      9 N3         11.8370   46.2260   23.7930 N.ar      1 CK3        -0.2644
     10 C5         12.8570   45.6250   21.7350 C.ar      1 CK3        -0.0291
     11 C6         12.0590   46.6050   21.1130 C.ar      1 CK3         0.0026
     12 N1         11.2110   47.3410   21.8190 N.ar      1 CK3        -0.2647
     13 C2         11.1510   47.1320   23.1280 C.ar      1 CK3         0.1983
     14 N7         10.2460   47.8900   23.9440 N.pl3     1 CK3        -0.2364
     15 C8          9.2070   47.4280   24.7980 C.2       1 CK3         0.1174
     16 N9          8.4810   48.2310   25.4580 N.2       1 CK3        -0.1768
     17 O10         8.5260   49.5430   25.4850 O.3       1 CK3        -0.2825
     18 H1         15.1484   41.5324   26.8960 H         1 CK3         0.0510
     19 H2         13.3852   41.6922   27.1998 H         1 CK3         0.0510
     20 H3         14.5166   42.9565   27.7899 H         1 CK3         0.0510
     21 H4         14.8894   44.2561   21.5507 H         1 CK3         0.0414
     22 H5         15.2416   42.5248   21.8750 H         1 CK3         0.0414
     23 H6         16.3645   43.7959   22.4668 H         1 CK3         0.0414
     24 H7         13.5598   45.0279   21.1652 H         1 CK3         0.0603
     25 H8         12.1390   46.7597   20.0431 H         1 CK3         0.0853
     26 H9         10.3658   48.9123   23.9057 H         1 CK3         0.2210
     27 H10         9.0304   46.3571   24.8874 H         1 CK3         0.1147
     28 H11         8.3738   49.8820   24.6107 H         1 CK3         0.2634
@<TRIPOS>BOND
     1    1    2 1  
     2    2    3 1  
     3    2    4 2  
     4    3    7 1  
     5    4    5 1  
     6    5    6 1  
     7    5    7 2  
     8    7    8 1  
     9    8    9 ar 
    10    8   10 ar 
    11    9   13 ar 
    12   10   11 ar 
    13   11   12 ar 
    14   12   13 ar 
    15   13   14 1  
    16   14   15 1  
    17   15   16 2  
    18   16   17 1  
    19    1   18 1  
    20    1   19 1  
    21    1   20 1  
    22    6   21 1  
    23    6   22 1  
    24    6   23 1  
    25   10   24 1  
    26   11   25 1  
    27   14   26 1  
    28   15   27 1  
    29   17   28 1  
@<TRIPOS>SUBSTRUCTURE
     1 CK3         1

