### 
### Created by X-TOOL on Mon Sep 10 21:12:50 2018
### 

@<TRIPOS>MOLECULE
1pxl_ligand
   37    39     1     0     0
SMALL
GAST_HUCK


@<TRIPOS>ATOM
      1 F8B         8.5860   45.8700   30.4820 F         1 CK4        -0.2368
      2 C7B         7.4920   45.9380   29.5940 C.3       1 CK4         0.3582
      3 F1B         6.6520   47.0090   29.9800 F         1 CK4        -0.2368
      4 F9B         6.7780   44.7360   29.6220 F         1 CK4        -0.2368
      5 C4B         8.0710   46.1830   28.1180 C.ar      1 CK4         0.0286
      6 C5B         7.4150   47.1130   27.2140 C.ar      1 CK4        -0.0401
      7 C6B         7.9630   47.3440   25.9040 C.ar      1 CK4        -0.0038
      8 C3B         9.2760   45.4860   27.6780 C.ar      1 CK4        -0.0401
      9 C2B         9.8190   45.7110   26.3930 C.ar      1 CK4        -0.0038
     10 C1B         9.2100   46.6290   25.4760 C.ar      1 CK4         0.1025
     11 N7          9.8050   46.8810   24.1400 N.pl3     1 CK4        -0.2224
     12 C2         10.9180   46.5200   23.2800 C.ar      1 CK4         0.2083
     13 N1         10.9680   47.0990   22.0930 N.ar      1 CK4        -0.2607
     14 C6         12.0090   46.7930   21.2420 C.ar      1 CK4         0.0050
     15 C5         13.0550   45.8810   21.5460 C.ar      1 CK4        -0.0272
     16 N3         11.8620   45.6440   23.6600 N.ar      1 CK4        -0.2604
     17 C4         12.9530   45.2710   22.8570 C.ar      1 CK4         0.0450
     18 C5A        13.8620   44.3090   23.4280 C.2       1 CK4         0.0675
     19 S4A        13.4400   43.7410   25.0860 S.3       1 CK4        -0.0005
     20 C1A        15.0560   43.6450   23.0360 C.2       1 CK4         0.0146
     21 C6A        15.8070   43.7990   21.6860 C.3       1 CK4        -0.0221
     22 N2A        15.5950   42.7590   23.9940 N.2       1 CK4        -0.2960
     23 C3A        14.8030   42.7540   25.0980 C.2       1 CK4         0.0971
     24 C7A        14.9890   41.9640   26.3620 C.3       1 CK4         0.0113
     25 H1          6.5154   47.6311   27.5259 H         1 CK4         0.0817
     26 H2          7.4746   48.0348   25.2263 H         1 CK4         0.0647
     27 H3          9.7616   44.7851   28.3473 H         1 CK4         0.0817
     28 H4         10.7147   45.1783   26.0945 H         1 CK4         0.0647
     29 H5          9.2123   47.5594   23.6406 H         1 CK4         0.2320
     30 H6         12.0307   47.2819   20.2747 H         1 CK4         0.0859
     31 H7         13.8612   45.6600   20.8559 H         1 CK4         0.0619
     32 H8         16.6971   43.1527   21.6858 H         1 CK4         0.0414
     33 H9         16.1148   44.8469   21.5551 H         1 CK4         0.0414
     34 H10        15.1413   43.5064   20.8606 H         1 CK4         0.0414
     35 H11        15.8990   41.3513   26.2809 H         1 CK4         0.0510
     36 H12        14.1187   41.3092   26.5166 H         1 CK4         0.0510
     37 H13        15.0856   42.6529   27.2141 H         1 CK4         0.0510
@<TRIPOS>BOND
     1    2    1 1  
     2    2    3 1  
     3    2    4 1  
     4    2    5 1  
     5    5    6 ar 
     6    5    8 ar 
     7    6    7 ar 
     8    7   10 ar 
     9    8    9 ar 
    10    9   10 ar 
    11   10   11 1  
    12   11   12 1  
    13   12   13 ar 
    14   12   16 ar 
    15   13   14 ar 
    16   14   15 ar 
    17   15   17 ar 
    18   16   17 ar 
    19   17   18 1  
    20   18   19 1  
    21   18   20 2  
    22   19   23 1  
    23   20   21 1  
    24   20   22 1  
    25   22   23 2  
    26   23   24 1  
    27    6   25 1  
    28    7   26 1  
    29    8   27 1  
    30    9   28 1  
    31   11   29 1  
    32   14   30 1  
    33   15   31 1  
    34   21   32 1  
    35   21   33 1  
    36   21   34 1  
    37   24   35 1  
    38   24   36 1  
    39   24   37 1  
@<TRIPOS>SUBSTRUCTURE
     1 CK4         1

