### 
### Created by X-TOOL on Mon Sep 10 21:12:52 2018
### 

@<TRIPOS>MOLECULE
1pxm_ligand
   35    37     1     0     0
SMALL
GAST_HUCK


@<TRIPOS>ATOM
      1 O7B        17.3240   44.2610    8.6060 O.3       1 CK5        -0.3361
      2 C3B        17.6000   45.2300    9.5260 C.ar      1 CK5         0.0781
      3 C2B        16.8520   45.3760   10.7270 C.ar      1 CK5        -0.0109
      4 C1B        17.1670   46.4200   11.6750 C.ar      1 CK5         0.0562
      5 C6B        18.2390   47.2920   11.3720 C.ar      1 CK5        -0.0493
      6 C5B        18.9920   47.1490   10.1780 C.ar      1 CK5        -0.0798
      7 C4B        18.6650   46.1180    9.2610 C.ar      1 CK5        -0.0449
      8 N7         16.4860   46.6860   12.9470 N.pl3     1 CK5        -0.2463
      9 C2         15.3970   46.0000   13.5540 C.ar      1 CK5         0.1961
     10 N1         15.2400   46.2990   14.8440 N.ar      1 CK5        -0.2649
     11 C6         14.2560   45.7080   15.5500 C.ar      1 CK5         0.0026
     12 N3         14.6440   45.1440   12.9070 N.ar      1 CK5        -0.2646
     13 C4         13.6330   44.5040   13.5490 C.ar      1 CK5         0.0427
     14 C5         13.3940   44.7700   14.9350 C.ar      1 CK5        -0.0291
     15 C5A        12.8660   43.5650   12.7860 C.2       1 CK5         0.0670
     16 C1A        11.6170   42.9260   12.8830 C.2       1 CK5         0.0145
     17 C6A        10.5430   43.0470   13.9610 C.3       1 CK5        -0.0221
     18 S4A        13.6190   43.0010   11.3280 S.3       1 CK5        -0.0005
     19 C3A        12.3360   42.0210   10.9520 C.2       1 CK5         0.0971
     20 N2A        11.3470   42.0570   11.8280 N.2       1 CK5        -0.2960
     21 C7A        12.3820   41.1970    9.7010 C.3       1 CK5         0.0113
     22 H1         17.9333   44.3319    7.8806 H         1 CK5         0.2478
     23 H2         16.0345   44.6948   10.9339 H         1 CK5         0.0455
     24 H3         18.4903   48.0857   12.0663 H         1 CK5         0.0446
     25 H4         19.8133   47.8246    9.9678 H         1 CK5         0.0561
     26 H5         19.2385   46.0106    8.3474 H         1 CK5         0.0448
     27 H6         16.8503   47.4886   13.4799 H         1 CK5         0.2174
     28 H7         14.1239   45.9533   16.5976 H         1 CK5         0.0853
     29 H8         12.5971   44.2801   15.4827 H         1 CK5         0.0604
     30 H9          9.6933   42.3964   13.7067 H         1 CK5         0.0414
     31 H10        10.2004   44.0905   14.0218 H         1 CK5         0.0414
     32 H11        10.9613   42.7413   14.9313 H         1 CK5         0.0414
     33 H12        11.4541   40.6128    9.6124 H         1 CK5         0.0510
     34 H13        13.2429   40.5136    9.7435 H         1 CK5         0.0510
     35 H14        12.4827   41.8597    8.8289 H         1 CK5         0.0510
@<TRIPOS>BOND
     1    1    2 1  
     2    2    3 ar 
     3    2    7 ar 
     4    3    4 ar 
     5    4    5 ar 
     6    4    8 1  
     7    5    6 ar 
     8    6    7 ar 
     9    8    9 1  
    10    9   10 ar 
    11    9   12 ar 
    12   10   11 ar 
    13   11   14 ar 
    14   12   13 ar 
    15   13   14 ar 
    16   13   15 1  
    17   15   16 2  
    18   15   18 1  
    19   16   17 1  
    20   16   20 1  
    21   18   19 1  
    22   19   20 2  
    23   19   21 1  
    24    1   22 1  
    25    3   23 1  
    26    5   24 1  
    27    6   25 1  
    28    7   26 1  
    29    8   27 1  
    30   11   28 1  
    31   14   29 1  
    32   17   30 1  
    33   17   31 1  
    34   17   32 1  
    35   21   33 1  
    36   21   34 1  
    37   21   35 1  
@<TRIPOS>SUBSTRUCTURE
     1 CK5         1

