### 
### Created by X-TOOL on Mon Sep 10 21:12:52 2018
### 

@<TRIPOS>MOLECULE
1pxn_ligand
   37    39     1     0     0
SMALL
GAST_HUCK


@<TRIPOS>ATOM
      1 C6A        -2.4600    4.7530   25.0770 C.3       1 CK6        -0.0239
      2 C1A        -1.4870    5.8930   25.1480 C.2       1 CK6         0.0048
      3 N2A        -1.8230    6.9900   24.4360 N.2       1 CK6        -0.2908
      4 C3A        -1.0310    8.0170   24.4600 C.2       1 CK6         0.1898
      5 N7A        -1.3230    9.1160   23.7770 N.pl3     1 CK6        -0.2811
      6 C8A        -0.5270   10.3440   23.7120 C.3       1 CK6         0.0243
      7 C5A        -0.3030    6.0690   25.8020 C.2       1 CK6         0.0609
      8 S4A         0.3640    7.7080   25.4720 S.3       1 CK6         0.0177
      9 C4          0.5200    5.2340   26.7180 C.ar      1 CK6         0.0365
     10 C5          0.1510    3.9250   27.0580 C.ar      1 CK6        -0.0321
     11 N3          1.6430    5.8030   27.2150 N.ar      1 CK6        -0.2689
     12 C2          2.4550    5.1190   28.0750 C.ar      1 CK6         0.1913
     13 N1          2.1790    3.8330   28.4650 N.ar      1 CK6        -0.2681
     14 C6          1.0330    3.2900   27.9350 C.ar      1 CK6        -0.0000
     15 N7          3.5610    5.6870   28.5730 N.pl3     1 CK6        -0.2503
     16 C1B         4.0940    6.9570   28.3490 C.ar      1 CK6         0.0548
     17 C2B         3.4980    7.8870   27.4780 C.ar      1 CK6        -0.0461
     18 C3B         3.9930    9.1440   27.2280 C.ar      1 CK6        -0.0422
     19 C6B         5.2890    7.3980   28.9900 C.ar      1 CK6        -0.0461
     20 C5B         5.8130    8.6910   28.7490 C.ar      1 CK6        -0.0422
     21 C4B         5.1570    9.5680   27.8590 C.ar      1 CK6         0.0762
     22 O7B         5.6020   10.8530   27.5600 O.3       1 CK6        -0.3404
     23 H1         -2.0906    3.9170   25.6891 H         1 CK6         0.0415
     24 H2         -2.5643    4.4245   24.0324 H         1 CK6         0.0415
     25 H3         -3.4383    5.0817   25.4575 H         1 CK6         0.0415
     26 H4         -2.1998    9.1048   23.2367 H         1 CK6         0.1939
     27 H5         -1.0328   11.0749   23.0639 H         1 CK6         0.0499
     28 H6          0.4671   10.1152   23.3005 H         1 CK6         0.0499
     29 H7         -0.4177   10.7641   24.7227 H         1 CK6         0.0499
     30 H8         -0.7424    3.4467   26.6731 H         1 CK6         0.0588
     31 H9          0.7912    2.2738   28.2248 H         1 CK6         0.0845
     32 H10         4.1010    5.0956   29.2207 H         1 CK6         0.2147
     33 H11         2.5870    7.5921   26.9699 H         1 CK6         0.0512
     34 H12         3.4770    9.8039   26.5401 H         1 CK6         0.0516
     35 H13         5.8046    6.7325   29.6729 H         1 CK6         0.0512
     36 H14         6.7207    9.0082   29.2495 H         1 CK6         0.0516
     37 H15         5.0061   11.2570   26.9401 H         1 CK6         0.2444
@<TRIPOS>BOND
     1    1    2 1  
     2    2    3 1  
     3    2    7 2  
     4    3    4 2  
     5    4    5 1  
     6    4    8 1  
     7    5    6 1  
     8    7    8 1  
     9    7    9 1  
    10    9   10 ar 
    11    9   11 ar 
    12   10   14 ar 
    13   11   12 ar 
    14   12   13 ar 
    15   12   15 1  
    16   13   14 ar 
    17   15   16 1  
    18   16   17 ar 
    19   16   19 ar 
    20   17   18 ar 
    21   18   21 ar 
    22   19   20 ar 
    23   20   21 ar 
    24   21   22 1  
    25    1   23 1  
    26    1   24 1  
    27    1   25 1  
    28    5   26 1  
    29    6   27 1  
    30    6   28 1  
    31    6   29 1  
    32   10   30 1  
    33   14   31 1  
    34   15   32 1  
    35   17   33 1  
    36   18   34 1  
    37   19   35 1  
    38   20   36 1  
    39   22   37 1  
@<TRIPOS>SUBSTRUCTURE
     1 CK6         1

