### 
### Created by X-TOOL on Mon Sep 10 21:12:52 2018
### 

@<TRIPOS>MOLECULE
1py2_ligand
   82    85     1     0     0
SMALL
GAST_HUCK


@<TRIPOS>ATOM
      1 O45        32.9680    9.6610   -1.9130 O.2       1 FRH        -0.3927
      2 C26        31.8850    9.9750   -1.4400 C.2       1 FRH         0.2183
      3 C25        30.6210    9.7410   -2.2190 C.3       1 FRH         0.1624
      4 C32        30.5590   10.6210   -3.4650 C.3       1 FRH         0.0032
      5 C36        29.8830   11.9670   -3.2190 C.3       1 FRH        -0.0411
      6 C38        28.3680   11.8410   -3.1050 C.3       1 FRH        -0.0624
      7 C37        30.2460   12.9520   -4.3230 C.3       1 FRH        -0.0624
      8 N5         30.5140    8.3500   -2.6090 N.pl3     1 FRH        -0.2519
      9 C17        29.3820    7.6640   -2.5070 C.cat     1 FRH         0.2904
     10 N4         28.6530    7.7260   -1.3930 N.pl3     1 FRH        -0.2847
     11 N1         28.9840    6.9080   -3.5280 N.pl3     1 FRH        -0.2847
     12 N2         31.7320   10.5240   -0.2330 N.am      1 FRH        -0.2652
     13 C28        32.7470   10.4860    0.8080 C.3       1 FRH         0.1202
     14 C14        32.6950   11.7260    1.6750 C.2       1 FRH         0.2010
     15 O44        31.6500   12.3560    1.7400 O.2       1 FRH        -0.3947
     16 N6         33.8020   12.0990    2.3360 N.am      1 FRH        -0.2712
     17 C22        33.8440   13.3520    3.0990 C.3       1 FRH         0.0363
     18 C15        34.1670   12.9970    4.5520 C.3       1 FRH        -0.0162
     19 C19        35.4970   12.2480    4.6220 C.3       1 FRH         0.0246
     20 C27        35.3770   10.9760    3.7830 C.3       1 FRH        -0.0162
     21 C29        35.0410   11.3140    2.3300 C.3       1 FRH         0.0363
     22 C23        35.9030   11.9190    6.0400 C.2       1 FRH         0.0703
     23 C11        35.2610   11.8040    7.1290 C.2       1 FRH        -0.0453
     24 C13        36.0200   11.4880    8.1020 C.2       1 FRH         0.0168
     25 N7         37.2340   11.2320    7.6190 N.2       1 FRH        -0.2291
     26 N3         37.1570   11.6680    6.3950 N.pl3     1 FRH        -0.2103
     27 C34        38.3830   11.8280    5.6230 C.3       1 FRH         0.0584
     28 C24        35.7840   11.3790    9.5850 C.ar      1 FRH        -0.0131
     29 C10        36.7530   11.8850   10.4520 C.ar      1 FRH        -0.0621
     30 C21        34.6400   10.7810   10.1100 C.ar      1 FRH         0.0537
     31 CL8        33.3630   10.1100    9.0430 Cl        1 FRH        -0.0719
     32 C16        34.4690   10.6990   11.4850 C.ar      1 FRH         0.0828
     33 CL9        32.9910    9.9310   12.1570 Cl        1 FRH        -0.0779
     34 C30        35.4320   11.2010   12.3490 C.ar      1 FRH         0.1099
     35 C33        36.5800   11.8010   11.8310 C.ar      1 FRH        -0.0310
     36 O43        35.2310   11.1050   13.7040 O.3       1 FRH        -0.3000
     37 C35        36.2900   10.8010   14.6130 C.3       1 FRH         0.1371
     38 C18        36.3560   11.9000   15.6460 C.2       1 FRH         0.1321
     39 C39        36.7620   11.7960   16.8380 C.2       1 FRH        -0.0592
     40 O42        35.9500   13.2720   15.4550 O.3       1 FRH        -0.2516
     41 C31        35.8680   13.7580   16.8070 C.2       1 FRH         0.1359
     42 C12        36.3860   12.7720   17.5610 C.2       1 FRH        -0.0629
     43 C20        35.3220   15.0400   17.2490 C.2       1 FRH         0.0819
     44 O40        34.6100   15.6920   16.4540 O.co2     1 FRH        -0.5649
     45 O41        35.5770   15.4550   18.4020 O.co2     1 FRH        -0.5649
     46 H1         29.7672    9.9919   -1.5725 H         1 FRH         0.0974
     47 H2         29.9968   10.0849   -4.2437 H         1 FRH         0.0330
     48 H3         31.5857   10.8045   -3.8146 H         1 FRH         0.0330
     49 H4         30.2611   12.3641   -2.2654 H         1 FRH         0.0298
     50 H5         27.9297   12.8344   -2.9287 H         1 FRH         0.0232
     51 H6         28.1175   11.1756   -2.2657 H         1 FRH         0.0232
     52 H7         27.9636   11.4222   -4.0383 H         1 FRH         0.0232
     53 H8         31.3405   13.0343   -4.3956 H         1 FRH         0.0232
     54 H9         29.8188   13.9384   -4.0894 H         1 FRH         0.0232
     55 H10        29.8409   12.5945   -5.2812 H         1 FRH         0.0232
     56 H11        31.3490    7.8745   -2.9800 H         1 FRH         0.2671
     57 H12        27.7758    7.1910   -1.3211 H         1 FRH         0.2615
     58 H13        28.9668    8.3089   -0.6039 H         1 FRH         0.2615
     59 H14        29.5505    6.8630   -4.3870 H         1 FRH         0.2615
     60 H15        28.1096    6.3681   -3.4589 H         1 FRH         0.2615
     61 H16        30.8693   10.9885   -0.0328 H         1 FRH         0.1881
     62 H17        33.7394   10.4191    0.3382 H         1 FRH         0.0763
     63 H18        32.5796    9.6007    1.4391 H         1 FRH         0.0763
     64 H19        32.8687   13.8577    3.0442 H         1 FRH         0.0524
     65 H20        34.6233   14.0132    2.6921 H         1 FRH         0.0524
     66 H21        33.3678   12.3594    4.9578 H         1 FRH         0.0313
     67 H22        34.2369   13.9202    5.1460 H         1 FRH         0.0313
     68 H23        36.2788   12.8871    4.1858 H         1 FRH         0.0509
     69 H24        34.5797   10.3429    4.1996 H         1 FRH         0.0313
     70 H25        36.3321   10.4313    3.8150 H         1 FRH         0.0313
     71 H26        35.8561   11.9019    1.8829 H         1 FRH         0.0524
     72 H27        34.8968   10.3888    1.7528 H         1 FRH         0.0524
     73 H28        34.1868   11.9576    7.2207 H         1 FRH         0.0242
     74 H29        39.2443   11.5222    6.2351 H         1 FRH         0.0597
     75 H30        38.4971   12.8822    5.3303 H         1 FRH         0.0597
     76 H31        38.3329   11.2003    4.7210 H         1 FRH         0.0597
     77 H32        37.6471   12.3469   10.0490 H         1 FRH         0.0595
     78 H33        37.3343   12.2002   12.4994 H         1 FRH         0.0548
     79 H34        37.2438   10.7448   14.0679 H         1 FRH         0.0824
     80 H35        36.0922    9.8379   15.1063 H         1 FRH         0.0824
     81 H36        37.3646   10.9660   17.2040 H         1 FRH         0.0247
     82 H37        36.4719   12.8052   18.6461 H         1 FRH         0.0367
@<TRIPOS>BOND
     1    1    2 2  
     2    2    3 1  
     3    2   12 am 
     4    3    4 1  
     5    3    8 1  
     6    4    5 1  
     7    5    6 1  
     8    5    7 1  
     9    8    9 ar 
    10    9   10 ar 
    11    9   11 ar 
    12   12   13 1  
    13   13   14 1  
    14   14   15 2  
    15   14   16 am 
    16   16   17 1  
    17   16   21 1  
    18   17   18 1  
    19   18   19 1  
    20   19   20 1  
    21   19   22 1  
    22   20   21 1  
    23   22   23 2  
    24   22   26 1  
    25   23   24 1  
    26   24   25 2  
    27   24   28 1  
    28   25   26 1  
    29   26   27 1  
    30   28   29 ar 
    31   28   30 ar 
    32   29   35 ar 
    33   30   31 1  
    34   30   32 ar 
    35   32   33 1  
    36   32   34 ar 
    37   34   35 ar 
    38   34   36 1  
    39   36   37 1  
    40   37   38 1  
    41   38   39 2  
    42   38   40 1  
    43   39   42 1  
    44   40   41 1  
    45   41   42 2  
    46   41   43 1  
    47   43   44 ar 
    48   43   45 ar 
    49    3   46 1  
    50    4   47 1  
    51    4   48 1  
    52    5   49 1  
    53    6   50 1  
    54    6   51 1  
    55    6   52 1  
    56    7   53 1  
    57    7   54 1  
    58    7   55 1  
    59    8   56 1  
    60   10   57 1  
    61   10   58 1  
    62   11   59 1  
    63   11   60 1  
    64   12   61 1  
    65   13   62 1  
    66   13   63 1  
    67   17   64 1  
    68   17   65 1  
    69   18   66 1  
    70   18   67 1  
    71   19   68 1  
    72   20   69 1  
    73   20   70 1  
    74   21   71 1  
    75   21   72 1  
    76   23   73 1  
    77   27   74 1  
    78   27   75 1  
    79   27   76 1  
    80   29   77 1  
    81   35   78 1  
    82   37   79 1  
    83   37   80 1  
    84   39   81 1  
    85   42   82 1  
@<TRIPOS>SUBSTRUCTURE
     1 FRH         1

