### 
### Created by X-TOOL on Mon Sep 10 21:12:52 2018
### 

@<TRIPOS>MOLECULE
1py5_ligand
   33    36     1     0     0
SMALL
GAST_HUCK


@<TRIPOS>ATOM
      1 C1          4.6090    8.3280    5.5710 C.2       1 PY1         0.0279
      2 C2          5.3520    9.5570    6.0020 C.2       1 PY1         0.0737
      3 N3          5.4320    9.5820    7.3760 N.2       1 PY1        -0.1967
      4 N4          4.7780    8.4320    7.8050 N.pl3     1 PY1        -0.2072
      5 C5          4.2760    7.6560    6.7640 C.2       1 PY1         0.0736
      6 C8          4.2630    7.8460    4.1490 C.ar      1 PY1        -0.0060
      7 C10         5.9580   10.6290    5.1760 C.ar      1 PY1         0.0590
      8 N12         7.2200   11.0770    5.6250 N.ar      1 PY1        -0.2930
      9 C13         7.9620   12.0110    5.0350 C.ar      1 PY1         0.0088
     10 C14         7.4620   12.6140    3.8550 C.ar      1 PY1        -0.0353
     11 C15         6.1610   12.1990    3.3270 C.ar      1 PY1        -0.0430
     12 C16         5.3760   11.1980    3.9700 C.ar      1 PY1        -0.0276
     13 C21         2.8860    7.4780    3.6980 C.ar      1 PY1         0.0070
     14 C22         2.7400    7.0350    2.2850 C.ar      1 PY1         0.0376
     15 N23         3.8770    7.0140    1.4480 N.ar      1 PY1        -0.3085
     16 C24         5.1370    7.3470    1.8470 C.ar      1 PY1        -0.0012
     17 C25         5.3660    7.7760    3.1880 C.ar      1 PY1        -0.0358
     18 C28         1.6560    7.4710    4.5120 C.ar      1 PY1        -0.0480
     19 C29         0.3780    7.0750    3.9550 C.ar      1 PY1        -0.0577
     20 C30         0.2790    6.6680    2.5940 C.ar      1 PY1        -0.0580
     21 C31         1.4470    6.6570    1.7660 C.ar      1 PY1        -0.0427
     22 H1          4.6749    8.1787    8.7980 H         1 PY1         0.2654
     23 H2          3.7335    6.7160    6.8538 H         1 PY1         0.1113
     24 H3          8.9219   12.3021    5.4459 H         1 PY1         0.0824
     25 H4          8.0388   13.3778    3.3461 H         1 PY1         0.0699
     26 H5          5.7849   12.6652    2.4235 H         1 PY1         0.0732
     27 H6          4.4122   10.8825    3.5870 H         1 PY1         0.0709
     28 H7          5.9627    7.2860    1.1473 H         1 PY1         0.0828
     29 H8          6.3668    8.0531    3.4990 H         1 PY1         0.0620
     30 H9          1.7093    7.7695    5.5527 H         1 PY1         0.0651
     31 H10        -0.5085    7.0887    4.5786 H         1 PY1         0.0625
     32 H11        -0.6790    6.3670    2.1856 H         1 PY1         0.0646
     33 H12         1.3586    6.3586    0.7276 H         1 PY1         0.0627
@<TRIPOS>BOND
     1    1    2 1  
     2    1    5 2  
     3    1    6 1  
     4    2    3 2  
     5    2    7 1  
     6    3    4 1  
     7    4    5 1  
     8    6   13 ar 
     9    6   17 ar 
    10    7    8 ar 
    11    7   12 ar 
    12    8    9 ar 
    13    9   10 ar 
    14   10   11 ar 
    15   11   12 ar 
    16   13   14 ar 
    17   13   18 ar 
    18   14   15 ar 
    19   14   21 ar 
    20   15   16 ar 
    21   16   17 ar 
    22   18   19 ar 
    23   19   20 ar 
    24   20   21 ar 
    25    4   22 1  
    26    5   23 1  
    27    9   24 1  
    28   10   25 1  
    29   11   26 1  
    30   12   27 1  
    31   16   28 1  
    32   17   29 1  
    33   18   30 1  
    34   19   31 1  
    35   20   32 1  
    36   21   33 1  
@<TRIPOS>SUBSTRUCTURE
     1 PY1         1

