### 
### Created by X-TOOL on Mon Sep 10 21:12:52 2018
### 

@<TRIPOS>MOLECULE
1pye_ligand
   42    45     1     0     0
SMALL
GAST_HUCK


@<TRIPOS>ATOM
      1 C1         12.1640   -8.8880   22.8640 C.ar      1 PM1         0.0603
      2 C2         13.0340   -9.2590   23.9350 C.ar      1 PM1         0.0298
      3 N3         13.9760  -10.2500   23.8420 N.ar      1 PM1        -0.2469
      4 C4         14.1340  -10.9480   22.5960 C.ar      1 PM1         0.1848
      5 C5         13.3150  -10.6450   21.5040 C.ar      1 PM1         0.0146
      6 C6         12.3350   -9.6040   21.6290 C.ar      1 PM1        -0.0210
      7 C10        14.9410  -10.7780   24.7210 C.2       1 PM1         0.2387
      8 C11        15.5940  -11.7950   23.9830 C.2       1 PM1         0.3021
      9 N12        15.1130  -11.8720   22.7300 N.pl3     1 PM1        -0.1659
     10 C13        15.2930  -10.4970   26.1290 C.2       1 PM1         0.2292
     11 C14        14.6600   -9.4620   26.9840 C.ar      1 PM1         0.0451
     12 C15        13.3970   -9.7370   27.6360 C.ar      1 PM1        -0.0430
     13 C16        12.7780   -8.7330   28.4710 C.ar      1 PM1        -0.0564
     14 C17        13.4230   -7.4700   28.6490 C.ar      1 PM1        -0.0577
     15 C18        14.6680   -7.1930   28.0000 C.ar      1 PM1        -0.0564
     16 C19        15.2930   -8.1840   27.1670 C.ar      1 PM1        -0.0430
     17 C23        11.1070   -7.7970   22.9750 C.2       1 PM1         0.1669
     18 C24        10.9440   -7.0500   24.3110 C.ar      1 PM1         0.1022
     19 C25         9.7520   -7.2480   25.0880 C.ar      1 PM1         0.1506
     20 C26         9.5190   -6.5890   26.3420 C.ar      1 PM1        -0.0261
     21 C27        10.4960   -5.6770   26.8580 C.ar      1 PM1        -0.0610
     22 C28        11.7070   -5.4310   26.1370 C.ar      1 PM1        -0.0261
     23 C29        11.9280   -6.0940   24.8830 C.ar      1 PM1         0.1506
     24 O33        10.3790   -7.5170   21.9890 O.2       1 PM1        -0.3691
     25 O34        16.2190  -11.1720   26.6280 O.2       1 PM1        -0.3359
     26 N35        16.6740  -12.6470   24.4810 N.pl3     1 PM1        -0.2517
     27 F36         8.8000   -8.0830   24.6690 F         1 PM1        -0.1783
     28 F39        13.0910   -5.8090   24.2780 F         1 PM1        -0.1783
     29 H1         12.9438   -8.7262   24.8747 H         1 PM1         0.0890
     30 H2         13.4191  -11.1905   20.5730 H         1 PM1         0.0747
     31 H3         11.7129   -9.3532   20.7775 H         1 PM1         0.0784
     32 H4         15.4343  -12.5221   21.9985 H         1 PM1         0.2689
     33 H5         12.9147  -10.6979   27.4976 H         1 PM1         0.0667
     34 H6         11.8315   -8.9363   28.9587 H         1 PM1         0.0629
     35 H7         12.9658   -6.7165   29.2801 H         1 PM1         0.0652
     36 H8         15.1434   -6.2286   28.1376 H         1 PM1         0.0629
     37 H9         16.2369   -7.9688   26.6792 H         1 PM1         0.0667
     38 H10         8.6074   -6.7807   26.8963 H         1 PM1         0.0582
     39 H11        10.3168   -5.1707   27.7996 H         1 PM1         0.0634
     40 H12        12.4511   -4.7500   26.5341 H         1 PM1         0.0582
     41 H13        17.0043  -12.5455   25.4513 H         1 PM1         0.2135
     42 H14        17.1041  -13.3484   23.8613 H         1 PM1         0.2135
@<TRIPOS>BOND
     1    1    2 ar 
     2    1    6 ar 
     3    1   17 1  
     4    2    3 ar 
     5    3    4 ar 
     6    3    7 1  
     7    4    5 ar 
     8    4    9 1  
     9    5    6 ar 
    10    7    8 2  
    11    7   10 1  
    12    8    9 1  
    13    8   26 1  
    14   10   11 1  
    15   10   25 2  
    16   11   12 ar 
    17   11   16 ar 
    18   12   13 ar 
    19   13   14 ar 
    20   14   15 ar 
    21   15   16 ar 
    22   17   18 1  
    23   17   24 2  
    24   18   19 ar 
    25   18   23 ar 
    26   19   20 ar 
    27   19   27 1  
    28   20   21 ar 
    29   21   22 ar 
    30   22   23 ar 
    31   23   28 1  
    32    2   29 1  
    33    5   30 1  
    34    6   31 1  
    35    9   32 1  
    36   12   33 1  
    37   13   34 1  
    38   14   35 1  
    39   15   36 1  
    40   16   37 1  
    41   20   38 1  
    42   21   39 1  
    43   22   40 1  
    44   26   41 1  
    45   26   42 1  
@<TRIPOS>SUBSTRUCTURE
     1 PM1         1

