### 
### Created by X-TOOL on Mon Sep 10 21:12:50 2018
### 

@<TRIPOS>MOLECULE
1pyn_ligand
   77    78     1     0     0
SMALL
GAST_HUCK


@<TRIPOS>ATOM
      1 C1         34.4630   29.7880   19.7570 C.ar      1 941        -0.0393
      2 C2         33.7860   29.1070   20.8760 C.ar      1 941         0.0890
      3 C3         32.4210   29.4120   21.1260 C.ar      1 941        -0.0393
      4 C4         31.7080   30.3500   20.3190 C.ar      1 941        -0.0685
      5 C5         32.3570   31.0120   19.2290 C.ar      1 941        -0.0493
      6 C6         33.7460   30.7210   18.9570 C.ar      1 941        -0.0685
      7 C9         31.1420   31.3540   16.9830 C.3       1 941         0.1407
      8 N1         30.3840   32.3590   16.2500 N.am      1 941        -0.2396
      9 C10        30.3740   32.6090   14.9360 C.2       1 941         0.3224
     10 C11        30.4560   29.9660   17.2050 C.2       1 941         0.2034
     11 N2         29.1490   30.0250   17.4950 N.am      1 941        -0.2849
     12 C12        28.2950   28.8480   17.7780 C.3       1 941         0.0310
     13 C13        27.1690   29.3100   18.7450 C.3       1 941        -0.0303
     14 C14        26.6180   30.7920   20.7650 C.3       1 941         0.0720
     15 C15        27.6880   30.3150   19.8110 C.3       1 941        -0.0229
     16 O1         26.2160   29.6980   21.5980 O.3       1 941        -0.3150
     17 O4         31.0650   31.9610   14.1930 O.2       1 941        -0.3774
     18 O9         29.5560   33.5920   14.5160 O.3       1 941        -0.2580
     19 C8         35.6430   27.6650   21.7500 C.3       1 941         0.1832
     20 O8         31.1300   28.9180   17.1360 O.2       1 941        -0.3944
     21 C7         31.5700   31.9910   18.3610 C.3       1 941         0.0163
     22 C16        36.6830   28.7280   22.1950 C.2       1 941         0.0824
     23 C24        35.6440   26.4290   22.6740 C.2       1 941         0.0824
     24 O6         34.9400   26.2740   23.6170 O.co2     1 941        -0.5643
     25 O7         36.5590   25.4910   22.3070 O.co2     1 941        -0.5643
     26 C32        24.9130   29.6800   22.1840 C.ar      1 941         0.1061
     27 C33        24.1570   30.9050   22.4990 C.ar      1 941        -0.0375
     28 C34        22.8560   30.8330   23.0900 C.ar      1 941        -0.0744
     29 C35        22.2770   29.5560   23.3800 C.ar      1 941        -0.0377
     30 C36        22.9850   28.3490   23.0850 C.ar      1 941         0.1026
     31 C37        24.3060   28.3890   22.4870 C.ar      1 941         0.1181
     32 C38        25.0030   27.0990   22.2030 C.2       1 941         0.2509
     33 O11        25.2850   26.3340   23.1060 O.2       1 941        -0.3702
     34 O12        25.2800   26.8540   20.9010 O.3       1 941        -0.2845
     35 C39        25.9500   25.6260   20.4810 C.3       1 941         0.0641
     36 O13        22.3480   27.1750   23.4010 O.3       1 941        -0.3301
     37 O3         36.4360   29.6970   22.8330 O.co2     1 941        -0.5643
     38 O5         37.9350   28.4390   21.7610 O.co2     1 941        -0.5643
     39 O2         34.2900   28.1630   21.7740 O.3       1 941        -0.2911
     40 C41        28.3520   33.4330   13.6200 C.3       1 941         0.0905
     41 C42        27.6080   32.0830   13.9080 C.3       1 941        -0.0320
     42 C43        28.8000   33.4540   12.1410 C.3       1 941        -0.0320
     43 C44        27.3190   34.5760   13.8600 C.3       1 941        -0.0320
     44 H1         35.5050   29.5782   19.5442 H         1 941         0.0525
     45 H2         31.9098   28.9222   21.9469 H         1 941         0.0525
     46 H3         30.6669   30.5622   20.5339 H         1 941         0.0530
     47 H4         34.2471   31.2188   18.1347 H         1 941         0.0530
     48 H5         32.0538   31.1561   16.4004 H         1 941         0.0820
     49 H6         29.7900   32.9415   16.8049 H         1 941         0.1901
     50 H7         28.7196   30.9277   17.5223 H         1 941         0.1851
     51 H8         28.8932   28.0546   18.2498 H         1 941         0.0520
     52 H9         27.8555   28.4693   16.8434 H         1 941         0.0520
     53 H10        26.7593   28.4281   19.2592 H         1 941         0.0285
     54 H11        26.3746   29.7944   18.1583 H         1 941         0.0285
     55 H12        27.0166   31.6047   21.3900 H         1 941         0.0617
     56 H13        25.7521   31.1591   20.1946 H         1 941         0.0617
     57 H14        28.1045   31.1898   19.2903 H         1 941         0.0292
     58 H15        28.4805   29.8241   20.3949 H         1 941         0.0292
     59 H16        35.8953   27.3537   20.7256 H         1 941         0.0989
     60 H17        32.1971   32.8730   18.1640 H         1 941         0.0452
     61 H18        30.6650   32.2987   18.9053 H         1 941         0.0452
     62 H19        24.5922   31.8734   22.2801 H         1 941         0.0464
     63 H20        22.3107   31.7419   23.3174 H         1 941         0.0600
     64 H21        21.2913   29.5035   23.8280 H         1 941         0.0464
     65 H22        26.0755   25.6321   19.3882 H         1 941         0.0574
     66 H23        25.3423   24.7576   20.7754 H         1 941         0.0574
     67 H24        26.9368   25.5634   20.9630 H         1 941         0.0574
     68 H25        21.4988   27.3689   23.7802 H         1 941         0.2507
     69 H26        26.7371   31.9949   13.2418 H         1 941         0.0260
     70 H27        27.2717   32.0658   14.9552 H         1 941         0.0260
     71 H28        28.2931   31.2413   13.7290 H         1 941         0.0260
     72 H29        27.9210   33.3380   11.4900 H         1 941         0.0260
     73 H30        29.5027   32.6275   11.9589 H         1 941         0.0260
     74 H31        29.2951   34.4114   11.9214 H         1 941         0.0260
     75 H32        26.4544   34.4344   13.1949 H         1 941         0.0260
     76 H33        27.7902   35.5468   13.6470 H         1 941         0.0260
     77 H34        26.9835   34.5531   14.9073 H         1 941         0.0260
@<TRIPOS>BOND
     1    1    2 ar 
     2    6    1 ar 
     3    3    2 ar 
     4    2   39 1  
     5    4    3 ar 
     6    5    4 ar 
     7    5    6 ar 
     8   21    5 1  
     9    7    8 1  
    10   10    7 1  
    11    7   21 1  
    12    8    9 am 
    13    9   17 2  
    14    9   18 1  
    15   11   10 am 
    16   10   20 2  
    17   12   11 1  
    18   13   12 1  
    19   15   13 1  
    20   18   40 1  
    21   22   37 ar 
    22   22   38 ar 
    23   23   24 ar 
    24   23   25 ar 
    25   26   27 ar 
    26   26   31 ar 
    27   27   28 ar 
    28   28   29 ar 
    29   30   29 ar 
    30   31   30 ar 
    31   30   36 1  
    32   31   32 1  
    33   32   33 2  
    34   32   34 1  
    35   34   35 1  
    36   40   41 1  
    37   40   42 1  
    38   40   43 1  
    39   39   19 1  
    40   16   26 1  
    41   19   23 1  
    42   19   22 1  
    43   14   16 1  
    44   15   14 1  
    45    1   44 1  
    46    3   45 1  
    47    4   46 1  
    48    6   47 1  
    49    7   48 1  
    50    8   49 1  
    51   11   50 1  
    52   12   51 1  
    53   12   52 1  
    54   13   53 1  
    55   13   54 1  
    56   14   55 1  
    57   14   56 1  
    58   15   57 1  
    59   15   58 1  
    60   19   59 1  
    61   21   60 1  
    62   21   61 1  
    63   27   62 1  
    64   28   63 1  
    65   29   64 1  
    66   35   65 1  
    67   35   66 1  
    68   35   67 1  
    69   36   68 1  
    70   41   69 1  
    71   41   70 1  
    72   41   71 1  
    73   42   72 1  
    74   42   73 1  
    75   42   74 1  
    76   43   75 1  
    77   43   76 1  
    78   43   77 1  
@<TRIPOS>SUBSTRUCTURE
     1 941         1

