### 
### Created by X-TOOL on Mon Sep 10 21:12:50 2018
### 

@<TRIPOS>MOLECULE
1pz5_ligand
  124   126     1     0     0
SMALL
GAST_HUCK


@<TRIPOS>ATOM
      1 N          -9.9150   11.4370   34.7030 N.4       1 MET         0.2379
      2 CA        -10.5560   12.7100   35.1390 C.3       1 MET         0.0658
      3 C         -10.1580   13.8830   34.2500 C.2       1 MET         0.2268
      4 O          -9.6660   13.6890   33.1380 O.2       1 MET        -0.3907
      5 CB        -10.1790   13.0160   36.5880 C.3       1 MET         0.0168
      6 CG         -8.6860   12.9780   36.8500 C.3       1 MET         0.0007
      7 SD         -8.2860   13.5270   38.5130 S.3       1 MET        -0.1638
      8 CE         -9.3450   12.4360   39.5010 C.3       1 MET        -0.0181
      9 N         -10.3740   15.0980   34.7460 N.am      1 ASP        -0.2595
     10 CA        -10.0460   16.3030   33.9930 C.3       1 ASP         0.1424
     11 C          -8.8170   16.9720   34.5940 C.2       1 ASP         0.2057
     12 O          -8.6520   16.9920   35.8150 O.2       1 ASP        -0.3943
     13 CB        -11.2350   17.2640   34.0050 C.3       1 ASP         0.0406
     14 CG        -12.4850   16.6420   33.4110 C.2       1 ASP         0.0393
     15 OD1       -12.4310   16.1940   32.2480 O.co2     1 ASP        -0.5688
     16 OD2       -13.5240   16.6020   34.1040 O.co2     1 ASP        -0.5688
     17 N          -7.9570   17.5230   33.7420 N.am      1 TRP        -0.2626
     18 CA         -6.7350   18.1520   34.2270 C.3       1 TRP         0.1352
     19 C          -6.5590   19.6520   34.0130 C.2       1 TRP         0.2053
     20 O          -5.4320   20.1490   33.9650 O.2       1 TRP        -0.3942
     21 CB         -5.5180   17.4110   33.6700 C.3       1 TRP         0.0042
     22 CG         -5.4330   15.9980   34.1600 C.2       1 TRP        -0.0418
     23 CD1        -5.9020   14.8780   33.5360 C.2       1 TRP         0.0167
     24 CD2        -4.8760   15.5620   35.4040 C.ar      1 TRP        -0.0214
     25 NE1        -5.6690   13.7680   34.3150 N.pl3     1 TRP        -0.2890
     26 CE2        -5.0400   14.1610   35.4680 C.ar      1 TRP         0.0603
     27 CE3        -4.2540   16.2200   36.4730 C.ar      1 TRP        -0.0747
     28 CZ2        -4.6020   13.4060   36.5590 C.ar      1 TRP        -0.0443
     29 CZ3        -3.8190   15.4670   37.5570 C.ar      1 TRP        -0.0792
     30 CH2        -3.9950   14.0760   37.5900 C.ar      1 TRP        -0.0768
     31 N          -7.6670   20.3720   33.8840 N.am      1 ASN        -0.2615
     32 CA         -7.6220   21.8190   33.7260 C.3       1 ASN         0.1476
     33 C          -9.0070   22.3540   34.0700 C.2       1 ASN         0.2063
     34 O         -10.0000   21.6410   33.9460 O.2       1 ASN        -0.3942
     35 CB         -7.1940   22.2080   32.3010 C.3       1 ASN         0.0773
     36 CG         -8.2380   21.8870   31.2620 C.2       1 ASN         0.1780
     37 OD1        -9.2830   22.5320   31.1990 O.2       1 ASN        -0.3970
     38 ND2        -7.9640   20.8800   30.4410 N.am      1 ASN        -0.3007
     39 N          -9.0680   23.6030   34.5200 N.am      1 MET        -0.2636
     40 CA        -10.3290   24.2050   34.9280 C.3       1 MET         0.1317
     41 C         -11.4080   24.2900   33.8630 C.2       1 MET         0.2040
     42 O         -12.5960   24.2590   34.1900 O.2       1 MET        -0.3944
     43 CB        -10.0970   25.6070   35.4960 C.3       1 MET        -0.0034
     44 CG         -9.1660   25.6490   36.6880 C.3       1 MET        -0.0024
     45 SD         -9.3950   27.1720   37.6320 S.3       1 MET        -0.1639
     46 CE        -11.0670   26.8970   38.3060 C.3       1 MET        -0.0181
     47 N         -11.0140   24.4110   32.6010 N.am      1 HIS        -0.2619
     48 CA        -12.0000   24.5140   31.5340 C.3       1 HIS         0.1421
     49 C         -12.7730   23.2110   31.3720 C.2       1 HIS         0.2060
     50 O         -14.0000   23.2170   31.2220 O.2       1 HIS        -0.3942
     51 CB        -11.3290   24.9170   30.2140 C.3       1 HIS         0.0427
     52 CG        -12.2890   25.0670   29.0740 C.2       1 HIS         0.0561
     53 ND1       -12.7690   23.9910   28.3570 N.pl3     1 HIS        -0.2623
     54 CD2       -12.9120   26.1600   28.5710 C.2       1 HIS        -0.0276
     55 CE1       -13.6440   24.4150   27.4640 C.2       1 HIS         0.0875
     56 NE2       -13.7500   25.7270   27.5730 N.2       1 HIS        -0.3437
     57 N         -12.0530   22.0950   31.4220 N.am      1 ALA        -0.2639
     58 CA        -12.6650   20.7810   31.2900 C.3       1 ALA         0.1282
     59 C         -13.3970   20.4170   32.5800 C.2       1 ALA         0.2031
     60 O         -14.4120   19.7200   32.5500 O.2       1 ALA        -0.3944
     61 CB        -11.6020   19.7400   30.9860 C.3       1 ALA        -0.0244
     62 N         -12.8690   20.8910   33.7060 N.am      1 ALA        -0.2698
     63 CA        -13.4490   20.6230   35.0200 C.3       1 ALA         0.0916
     64 C         -14.8720   21.1550   35.1330 C.2       1 ALA         0.0598
     65 O         -15.7540   20.3800   35.5570 O.co2     1 ALA        -0.5666
     66 CB        -12.5760   21.2350   36.1100 C.3       1 ALA        -0.0300
     67 OXT       -15.0870   22.3410   34.8130 O.co2     1 ALA        -0.5666
     68 H1        -10.2030   10.6892   35.3145 H         1 MET         0.2015
     69 H2         -8.9125   11.5352   34.7414 H         1 MET         0.2015
     70 H3        -10.1960   11.2256   33.7583 H         1 MET         0.2015
     71 H4        -11.6471   12.5844   35.0774 H         1 MET         0.1098
     72 H5        -10.6646   12.2729   37.2376 H         1 MET         0.0354
     73 H6        -10.5502   14.0207   36.8388 H         1 MET         0.0354
     74 H7         -8.1808   13.6353   36.1270 H         1 MET         0.0380
     75 H8         -8.3279   11.9461   36.7200 H         1 MET         0.0380
     76 H9         -9.2064   12.6594   40.5691 H         1 MET         0.0340
     77 H10        -9.0736   11.3878   39.3074 H         1 MET         0.0340
     78 H11       -10.3975   12.5991   39.2260 H         1 MET         0.0340
     79 H12       -10.7717   15.1876   35.6591 H         1 ASP         0.1886
     80 H13        -9.8251   16.0243   32.9521 H         1 ASP         0.0819
     81 H14       -10.9729   18.1581   33.4204 H         1 ASP         0.0478
     82 H15       -11.4446   17.5543   35.0451 H         1 ASP         0.0478
     83 H16        -8.1504   17.5055   32.7610 H         1 TRP         0.1884
     84 H17        -6.7387   18.0057   35.3172 H         1 TRP         0.0815
     85 H18        -4.6077   17.9464   33.9777 H         1 TRP         0.0397
     86 H19        -5.5836   17.4002   32.5720 H         1 TRP         0.0397
     87 H20        -6.3899   14.8650   32.5625 H         1 TRP         0.0795
     88 H21        -5.9252   12.8005   34.0718 H         1 TRP         0.2216
     89 H22        -4.1148   17.2949   36.4550 H         1 TRP         0.0540
     90 H23        -4.7370   12.3309   36.5893 H         1 TRP         0.0541
     91 H24        -3.3356   15.9630   38.3909 H         1 TRP         0.0510
     92 H25        -3.6432   13.5178   38.4501 H         1 TRP         0.0530
     93 H26        -8.5536   19.9096   33.8956 H         1 ASN         0.1885
     94 H27        -6.8900   22.2375   34.4324 H         1 ASN         0.0826
     95 H28        -6.2720   21.6625   32.0511 H         1 ASN         0.0551
     96 H29        -6.9977   23.2901   32.2774 H         1 ASN         0.0551
     97 H30        -8.6192   20.6210   29.7313 H         1 ASN         0.1814
     98 H31        -7.1025   20.3806   30.5324 H         1 ASN         0.1814
     99 H32        -8.2278   24.1420   34.5797 H         1 MET         0.1883
    100 H33       -10.7280   23.5736   35.7356 H         1 MET         0.0800
    101 H34       -11.0693   26.0195   35.8035 H         1 MET         0.0320
    102 H35        -9.6674   26.2342   34.7010 H         1 MET         0.0320
    103 H36        -8.1257   25.5976   36.3344 H         1 MET         0.0378
    104 H37        -9.3751   24.7872   37.3388 H         1 MET         0.0378
    105 H38       -11.3606   27.7600   38.9217 H         1 MET         0.0340
    106 H39       -11.0678   25.9877   38.9251 H         1 MET         0.0340
    107 H40       -11.7811   26.7775   37.4779 H         1 MET         0.0340
    108 H41       -10.0384   24.4315   32.3826 H         1 HIS         0.1885
    109 H42       -12.7166   25.3024   31.8077 H         1 HIS         0.0824
    110 H43       -10.5921   24.1446   29.9486 H         1 HIS         0.0491
    111 H44       -10.8151   25.8779   30.3644 H         1 HIS         0.0491
    112 H45       -12.4886   23.0098   28.4965 H         1 HIS         0.2386
    113 H46       -12.7739   27.1898   28.8973 H         1 HIS         0.0324
    114 H47       -14.1865   23.7890   26.7571 H         1 HIS         0.1149
    115 H48       -11.0639   22.1598   31.5539 H         1 ALA         0.1883
    116 H49       -13.3889   20.8050   30.4622 H         1 ALA         0.0797
    117 H50       -12.0743   18.7514   30.8882 H         1 ALA         0.0277
    118 H51       -10.8675   19.7161   31.8045 H         1 ALA         0.0277
    119 H52       -11.0942   19.9984   30.0451 H         1 ALA         0.0277
    120 H53       -12.0433   21.4524   33.6506 H         1 ALA         0.1875
    121 H54       -13.4780   19.5331   35.1659 H         1 ALA         0.0723
    122 H55       -13.0203   21.0282   37.0948 H         1 ALA         0.0270
    123 H56       -12.5093   22.3225   35.9589 H         1 ALA         0.0270
    124 H57       -11.5686   20.7958   36.0627 H         1 ALA         0.0270
@<TRIPOS>BOND
     1    2    1 1  
     2    2    5 1  
     3    3    2 1  
     4    3    4 2  
     5    5    6 1  
     6    6    7 1  
     7    7    8 1  
     8   10    9 1  
     9   10   13 1  
    10   11   10 1  
    11   11   12 2  
    12   13   14 1  
    13   14   15 ar 
    14   14   16 ar 
    15    9    3 am 
    16   18   17 1  
    17   18   21 1  
    18   19   18 1  
    19   19   20 2  
    20   21   22 1  
    21   22   23 2  
    22   22   24 1  
    23   24   27 ar 
    24   24   26 ar 
    25   26   28 ar 
    26   26   25 1  
    27   23   25 1  
    28   28   30 ar 
    29   29   30 ar 
    30   27   29 ar 
    31   17   11 am 
    32   32   31 1  
    33   32   35 1  
    34   33   32 1  
    35   33   34 2  
    36   35   36 1  
    37   36   38 am 
    38   36   37 2  
    39   31   19 am 
    40   40   39 1  
    41   40   43 1  
    42   41   40 1  
    43   41   42 2  
    44   43   44 1  
    45   44   45 1  
    46   45   46 1  
    47   39   33 am 
    48   48   47 1  
    49   48   51 1  
    50   49   48 1  
    51   49   50 2  
    52   51   52 1  
    53   52   53 1  
    54   52   54 2  
    55   54   56 1  
    56   56   55 2  
    57   53   55 1  
    58   47   41 am 
    59   58   57 1  
    60   58   61 1  
    61   59   58 1  
    62   59   60 2  
    63   57   49 am 
    64   62   63 1  
    65   63   66 1  
    66   63   64 1  
    67   64   65 ar 
    68   64   67 ar 
    69   59   62 am 
    70    1   68 1  
    71    1   69 1  
    72    1   70 1  
    73    2   71 1  
    74    5   72 1  
    75    5   73 1  
    76    6   74 1  
    77    6   75 1  
    78    8   76 1  
    79    8   77 1  
    80    8   78 1  
    81    9   79 1  
    82   10   80 1  
    83   13   81 1  
    84   13   82 1  
    85   17   83 1  
    86   18   84 1  
    87   21   85 1  
    88   21   86 1  
    89   23   87 1  
    90   25   88 1  
    91   27   89 1  
    92   28   90 1  
    93   29   91 1  
    94   30   92 1  
    95   31   93 1  
    96   32   94 1  
    97   35   95 1  
    98   35   96 1  
    99   38   97 1  
   100   38   98 1  
   101   39   99 1  
   102   40  100 1  
   103   43  101 1  
   104   43  102 1  
   105   44  103 1  
   106   44  104 1  
   107   46  105 1  
   108   46  106 1  
   109   46  107 1  
   110   47  108 1  
   111   48  109 1  
   112   51  110 1  
   113   51  111 1  
   114   53  112 1  
   115   54  113 1  
   116   55  114 1  
   117   57  115 1  
   118   58  116 1  
   119   61  117 1  
   120   61  118 1  
   121   61  119 1  
   122   62  120 1  
   123   63  121 1  
   124   66  122 1  
   125   66  123 1  
   126   66  124 1  
@<TRIPOS>SUBSTRUCTURE
     1 MET         1

