### 
### Created by X-TOOL on Mon Sep 10 21:12:51 2018
### 

@<TRIPOS>MOLECULE
1pzj_ligand
   77    79     1     0     0
SMALL
GAST_HUCK


@<TRIPOS>ATOM
      1 C1        -10.9760   19.6570    1.9860 C.3       1 15B         0.2097
      2 O1        -10.4630   19.4050    0.7320 O.3       1 15B        -0.2829
      3 C7        -10.9520   20.2910   -0.2710 C.ar      1 15B         0.1074
      4 C8        -10.6500   19.9520   -1.5700 C.ar      1 15B         0.0138
      5 C9        -11.1150   20.7800   -2.5730 C.ar      1 15B         0.1967
      6 N14       -10.8150   20.4610   -3.8340 N.2       1 15B         0.3133
      7 O15       -11.2060   21.1640   -4.7400 O.2       1 15B         0.1782
      8 O16       -10.1370   19.4710   -4.0820 O.2       1 15B         0.1782
      9 C10       -11.8880   21.9110   -2.2760 C.ar      1 15B        -0.0099
     10 C11       -12.2010   22.2330   -0.9470 C.ar      1 15B         0.0494
     11 C12       -11.7250   21.4040    0.0650 C.ar      1 15B        -0.0081
     12 C13       -12.9540   23.3550   -0.5700 C.2       1 15B         0.2038
     13 N18       -12.9790   24.3220   -1.3500 N.am      1 15B        -0.2860
     14 C19       -13.7200   25.5440   -1.1160 C.3       1 15B         0.0352
     15 C20       -14.8290   25.4360   -2.1560 C.3       1 15B         0.0076
     16 C21       -16.2040   25.1670   -1.5850 C.3       1 15B        -0.0296
     17 N22       -17.1010   25.8600   -2.1590 N.4       1 15B         0.2427
     18 C23       -16.6480   27.2360   -2.3500 C.3       1 15B         0.0094
     19 C24       -17.7300   28.0990   -2.9730 C.3       1 15B         0.0095
     20 N25       -18.8690   28.1620   -2.0810 N.4       1 15B         0.2428
     21 C28       -19.6530   29.0580   -2.3660 C.3       1 15B        -0.0266
     22 C35       -19.4070   30.1630   -1.7890 C.3       1 15B         0.0275
     23 C36       -18.7040   31.2090   -2.6420 C.3       1 15B        -0.0305
     24 N37       -19.1070   32.5640   -2.2970 N.4       1 15B         0.2187
     25 C26       -19.4290   26.8090   -2.0160 C.3       1 15B         0.0095
     26 C27       -18.3840   25.8290   -1.4570 C.3       1 15B         0.0094
     27 O17       -13.5190   23.4470    0.5270 O.2       1 15B        -0.3846
     28 C2        -10.6960   18.4020    2.7780 C.3       1 15B         0.1385
     29 O2        -11.4640   17.3440    2.2180 O.3       1 15B        -0.3837
     30 C3        -11.0570   18.6920    4.2280 C.3       1 15B         0.1145
     31 O3        -10.7090   17.5600    5.0010 O.3       1 15B        -0.3864
     32 C4        -10.3460   19.9500    4.7380 C.3       1 15B         0.1119
     33 O4         -8.9530   19.6760    4.8630 O.3       1 15B        -0.3865
     34 C5        -10.6330   21.1250    3.8190 C.3       1 15B         0.1134
     35 C6         -9.8630   22.3850    4.1990 C.3       1 15B         0.0730
     36 O6        -10.2800   23.4870    3.3870 O.3       1 15B        -0.3924
     37 O5        -10.2610   20.7680    2.4880 O.3       1 15B        -0.3369
     38 H1        -12.0546   19.8707    1.9569 H         1 15B         0.0993
     39 H2        -10.0678   19.0665   -1.7981 H         1 15B         0.0648
     40 H3        -12.2472   22.5425   -3.0805 H         1 15B         0.0653
     41 H4        -11.9521   21.6203    1.1027 H         1 15B         0.0635
     42 H5        -12.4517   24.2516   -2.1967 H         1 15B         0.1845
     43 H6        -13.0939   26.4319   -1.2881 H         1 15B         0.0521
     44 H7        -14.1290   25.5759   -0.0954 H         1 15B         0.0521
     45 H8        -14.5763   24.6150   -2.8431 H         1 15B         0.0336
     46 H9        -14.8688   26.3827   -2.7147 H         1 15B         0.0336
     47 H10       -16.1976   25.4122   -0.5127 H         1 15B         0.0815
     48 H11       -16.4407   24.1008   -1.7160 H         1 15B         0.0815
     49 H12       -17.2505   25.4579   -3.0712 H         1 15B         0.2038
     50 H13       -15.7686   27.2339   -3.0107 H         1 15B         0.0868
     51 H14       -16.3718   27.6597   -1.3732 H         1 15B         0.0868
     52 H15       -18.0401   27.6620   -3.9336 H         1 15B         0.0868
     53 H16       -17.3390   29.1134   -3.1408 H         1 15B         0.0868
     54 H17       -18.5237   28.3825   -1.1600 H         1 15B         0.2038
     55 H18       -20.6651   28.7361   -2.0796 H         1 15B         0.0816
     56 H19       -19.6135   29.2193   -3.4534 H         1 15B         0.0816
     57 H20       -18.7704   29.9546   -0.9165 H         1 15B         0.0369
     58 H21       -20.3635   30.5888   -1.4518 H         1 15B         0.0369
     59 H22       -18.9477   31.0257   -3.6989 H         1 15B         0.0815
     60 H23       -17.6181   31.1144   -2.4943 H         1 15B         0.0815
     61 H24       -18.6177   33.2201   -2.8854 H         1 15B         0.1994
     62 H25       -18.8820   32.7459   -1.3314 H         1 15B         0.1994
     63 H26       -20.1004   32.6646   -2.4353 H         1 15B         0.1994
     64 H27       -19.7239   26.4887   -3.0262 H         1 15B         0.0868
     65 H28       -20.3119   26.8121   -1.3599 H         1 15B         0.0868
     66 H29       -18.2061   26.0792   -0.4007 H         1 15B         0.0868
     67 H30       -18.7926   24.8102   -1.5288 H         1 15B         0.0868
     68 H31        -9.6287   18.1435    2.7151 H         1 15B         0.0675
     69 H32       -12.3870   17.5635    2.2677 H         1 15B         0.2101
     70 H33       -12.1425   18.8547    4.3003 H         1 15B         0.0648
     71 H34       -11.1910   16.8037    4.6877 H         1 15B         0.2100
     72 H35       -10.7383   20.1966    5.7356 H         1 15B         0.0647
     73 H36        -8.8255   18.9633    5.4781 H         1 15B         0.2100
     74 H37       -11.7103   21.3441    3.8557 H         1 15B         0.0647
     75 H38        -8.7871   22.2114    4.0499 H         1 15B         0.0584
     76 H39       -10.0532   22.6213    5.2563 H         1 15B         0.0584
     77 H40       -10.1147   23.2860    2.4733 H         1 15B         0.2095
@<TRIPOS>BOND
     1    1    2 1  
     2    1   28 1  
     3    1   37 1  
     4    2    3 1  
     5    3    4 ar 
     6    3   11 ar 
     7    4    5 ar 
     8    5    6 1  
     9    5    9 ar 
    10    6    7 2  
    11    6    8 2  
    12    9   10 ar 
    13   10   11 ar 
    14   10   12 1  
    15   12   13 am 
    16   12   27 2  
    17   13   14 1  
    18   14   15 1  
    19   15   16 1  
    20   16   17 1  
    21   17   18 1  
    22   17   26 1  
    23   18   19 1  
    24   19   20 1  
    25   20   21 1  
    26   20   25 1  
    27   21   22 1  
    28   22   23 1  
    29   23   24 1  
    30   25   26 1  
    31   28   29 1  
    32   28   30 1  
    33   30   31 1  
    34   30   32 1  
    35   32   33 1  
    36   32   34 1  
    37   34   35 1  
    38   34   37 1  
    39   35   36 1  
    40    1   38 1  
    41    4   39 1  
    42    9   40 1  
    43   11   41 1  
    44   13   42 1  
    45   14   43 1  
    46   14   44 1  
    47   15   45 1  
    48   15   46 1  
    49   16   47 1  
    50   16   48 1  
    51   17   49 1  
    52   18   50 1  
    53   18   51 1  
    54   19   52 1  
    55   19   53 1  
    56   20   54 1  
    57   21   55 1  
    58   21   56 1  
    59   22   57 1  
    60   22   58 1  
    61   23   59 1  
    62   23   60 1  
    63   24   61 1  
    64   24   62 1  
    65   24   63 1  
    66   25   64 1  
    67   25   65 1  
    68   26   66 1  
    69   26   67 1  
    70   28   68 1  
    71   29   69 1  
    72   30   70 1  
    73   31   71 1  
    74   32   72 1  
    75   33   73 1  
    76   34   74 1  
    77   35   75 1  
    78   35   76 1  
    79   36   77 1  
@<TRIPOS>SUBSTRUCTURE
     1 15B         1

