### 
### Created by X-TOOL on Fri Sep 26 17:34:26 2014
### 

@<TRIPOS>MOLECULE
1pzo_ligand
   35    37     1     0     0
SMALL
GAST_HUCK


@<TRIPOS>ATOM
      1 CL3         9.1350    8.4530   25.2140 Cl        1 CBT        -0.0771
      2 C29         8.8000    9.4700   26.2660 C.ar      1 CBT         0.0330
      3 C28         9.6450    9.6520   27.3900 C.ar      1 CBT        -0.0545
      4 C26         9.3940   10.7350   28.2740 C.ar      1 CBT        -0.0577
      5 C27         7.6900   10.3120   26.0430 C.ar      1 CBT        -0.0545
      6 C25         7.4660   11.3690   26.9360 C.ar      1 CBT        -0.0577
      7 C22         8.2870   11.5950   28.0490 C.ar      1 CBT        -0.0200
      8 C17         7.8910   12.6850   29.0640 C.3       1 CBT         0.0718
      9 N13         9.0410   13.1520   29.8690 N.pl3     1 CBT        -0.2359
     10 C16         9.3430   12.5810   31.0400 C.2       1 CBT         0.2600
     11 N18        10.2850   13.0250   31.8840 N.2       1 CBT        -0.2190
     12 N20        10.1760   12.2960   33.0710 N.2       1 CBT        -0.1642
     13 N21         9.1100   11.3920   32.9230 N.2       1 CBT        -0.0808
     14 N19         8.6300   11.6160   31.6310 N.pl3     1 CBT        -0.1370
     15 C1          9.8450   14.2850   29.3500 C.3       1 CBT         0.0718
     16 C2          9.0720   15.6100   29.3930 C.ar      1 CBT        -0.0200
     17 C3          8.0720   15.8560   30.3550 C.ar      1 CBT        -0.0577
     18 C5          7.4740   17.1340   30.4050 C.ar      1 CBT        -0.0545
     19 C7          7.8170   18.1780   29.5270 C.ar      1 CBT         0.0330
     20 CL8         7.1960   19.5650   29.6790 Cl        1 CBT        -0.0771
     21 C6          8.7760   17.9170   28.5480 C.ar      1 CBT        -0.0545
     22 C4          9.3960   16.6410   28.4970 C.ar      1 CBT        -0.0577
     23 H1         10.4710    8.9741   27.5721 H         1 CBT         0.0606
     24 H2         10.0483   10.9051   29.1213 H         1 CBT         0.0558
     25 H3          7.0268   10.1456   25.2018 H         1 CBT         0.0606
     26 H4          6.6288   12.0346   26.7596 H         1 CBT         0.0558
     27 H5          7.1283   12.2753   29.7425 H         1 CBT         0.0692
     28 H6          7.4722   13.5421   28.5163 H         1 CBT         0.0692
     29 H7          7.8431   11.1125   31.1972 H         1 CBT         0.2682
     30 H8         10.1262   14.0723   28.3080 H         1 CBT         0.0692
     31 H9         10.7536   14.3847   29.9620 H         1 CBT         0.0692
     32 H10         7.7671   15.0773   31.0448 H         1 CBT         0.0558
     33 H11         6.7144   17.3195   31.1558 H         1 CBT         0.0606
     34 H12         9.0460   18.6837   27.8308 H         1 CBT         0.0606
     35 H13        10.1475   16.4559   27.7380 H         1 CBT         0.0558
@<TRIPOS>BOND
     1    1    2 1  
     2    2    3 ar 
     3    2    5 ar 
     4    3    4 ar 
     5    4    7 ar 
     6    5    6 ar 
     7    6    7 ar 
     8    7    8 1  
     9    8    9 1  
    10    9   10 1  
    11    9   15 1  
    12   10   11 2  
    13   10   14 1  
    14   11   12 1  
    15   12   13 2  
    16   13   14 1  
    17   15   16 1  
    18   16   17 ar 
    19   16   22 ar 
    20   17   18 ar 
    21   18   19 ar 
    22   19   20 1  
    23   19   21 ar 
    24   21   22 ar 
    25    3   23 1  
    26    4   24 1  
    27    5   25 1  
    28    6   26 1  
    29    8   27 1  
    30    8   28 1  
    31   14   29 1  
    32   15   30 1  
    33   15   31 1  
    34   17   32 1  
    35   18   33 1  
    36   21   34 1  
    37   22   35 1  
@<TRIPOS>SUBSTRUCTURE
     1 CBT         1

