### 
### Created by X-TOOL on Mon Sep 10 21:12:51 2018
### 

@<TRIPOS>MOLECULE
1pzp_ligand
   38    40     1     0     0
SMALL
GAST_HUCK


@<TRIPOS>ATOM
      1 N8          1.4740   11.1940   20.3890 N.pl3     1 FTA        -0.2822
      2 C24         2.2840   10.2420   21.0790 C.ar      1 FTA         0.0553
      3 C26         3.6520   10.2270   20.9430 C.ar      1 FTA        -0.0406
      4 C28         4.3610    9.1780   21.4970 C.ar      1 FTA        -0.0727
      5 C30         3.7480    8.1610   22.2090 C.ar      1 FTA        -0.0745
      6 C29         2.3900    8.1850   22.3840 C.ar      1 FTA        -0.0727
      7 C27         1.6690    9.2440   21.8210 C.ar      1 FTA        -0.0406
      8 C7          1.9590   12.2360   19.5580 C.ar      1 FTA         0.0454
      9 C6          1.3260   12.6180   18.3780 C.ar      1 FTA        -0.0506
     10 C4          1.6910   13.7760   17.6780 C.ar      1 FTA        -0.0539
     11 C5          2.9970   13.0220   20.0260 C.ar      1 FTA        -0.0506
     12 C3          3.3650   14.1810   19.3540 C.ar      1 FTA        -0.0539
     13 C2          2.7210   14.5700   18.1760 C.ar      1 FTA         0.0262
     14 N1          2.9960   15.8650   17.6580 N.pl3     1 FTA        -0.3249
     15 C17         4.2140   16.3070   17.2900 C.3       1 FTA         0.0599
     16 C14         4.3000   17.3120   16.3960 C.3       1 FTA         0.1601
     17 C18         5.0840   18.4900   16.6990 C.1       1 FTA         0.1108
     18 N21         5.7030   19.4010   17.1010 N.1       1 FTA        -0.3007
     19 C13         3.5990   17.1930   15.0970 C.2       1 FTA         0.1484
     20 N15         4.0740   17.6320   13.8630 N.2       1 FTA        -0.1602
     21 N19         3.0900   17.3690   12.9190 N.pl3     1 FTA        -0.1152
     22 N20         2.0050   16.7740   13.5460 N.2       1 FTA        -0.0595
     23 N16         2.3230   16.6540   14.8950 N.2       1 FTA        -0.1790
     24 H1          0.4533   11.1178   20.5042 H         1 FTA         0.2046
     25 H2          4.1639   11.0215   20.4122 H         1 FTA         0.0525
     26 H3          5.4371    9.1504   21.3693 H         1 FTA         0.0584
     27 H4          4.3382    7.3523   22.6246 H         1 FTA         0.0510
     28 H5          1.8871    7.4046   22.9436 H         1 FTA         0.0584
     29 H6          0.5960    9.2859   21.9693 H         1 FTA         0.0525
     30 H7          0.5253   11.9999   17.9883 H         1 FTA         0.0499
     31 H8          1.1791   14.0496   16.7625 H         1 FTA         0.0488
     32 H9          3.5279   12.7309   20.9251 H         1 FTA         0.0499
     33 H10         4.1659   14.7946   19.7504 H         1 FTA         0.0488
     34 H11         2.2034   16.5149   17.5563 H         1 FTA         0.1723
     35 H12         4.7535   15.4486   16.8634 H         1 FTA         0.0554
     36 H13         4.7249   16.6437   18.2041 H         1 FTA         0.0554
     37 H14         3.4116   17.7876   16.8371 H         1 FTA         0.0795
     38 H15         3.1554   17.5818   11.9134 H         1 FTA         0.2882
@<TRIPOS>BOND
     1    1    2 1  
     2    1    8 1  
     3    2    3 ar 
     4    2    7 ar 
     5    3    4 ar 
     6    4    5 ar 
     7    5    6 ar 
     8    6    7 ar 
     9    8    9 ar 
    10    8   11 ar 
    11    9   10 ar 
    12   10   13 ar 
    13   11   12 ar 
    14   12   13 ar 
    15   13   14 1  
    16   14   15 1  
    17   15   16 1  
    18   16   17 1  
    19   16   19 1  
    20   17   18 3  
    21   19   20 2  
    22   19   23 1  
    23   20   21 1  
    24   21   22 1  
    25   22   23 2  
    26    1   24 1  
    27    3   25 1  
    28    4   26 1  
    29    5   27 1  
    30    6   28 1  
    31    7   29 1  
    32    9   30 1  
    33   10   31 1  
    34   11   32 1  
    35   12   33 1  
    36   14   34 1  
    37   15   35 1  
    38   15   36 1  
    39   16   37 1  
    40   21   38 1  
@<TRIPOS>SUBSTRUCTURE
     1 FTA         1

