### 
### Created by X-TOOL on Mon Sep 10 21:12:52 2018
### 

@<TRIPOS>MOLECULE
1q0b_ligand
   36    37     1     0     0
SMALL
GAST_HUCK


@<TRIPOS>ATOM
      1 C1         18.9440   14.0740  112.2220 C.ar      1 NAT        -0.0689
      2 C2         17.9470   13.4400  111.3640 C.ar      1 NAT        -0.0241
      3 C3         16.9050   12.6140  111.9150 C.ar      1 NAT        -0.0300
      4 C4         16.8720   12.4480  113.3610 C.ar      1 NAT         0.0807
      5 C5         17.8400   13.1070  114.2080 C.ar      1 NAT        -0.0407
      6 C6         18.9120   13.9210  113.6650 C.ar      1 NAT        -0.0774
      7 C7         18.0230   13.6040  109.8900 C.3       1 NAT         0.0950
      8 N8         19.3220   13.1940  109.3440 N.am      1 NAT        -0.2617
      9 C9         20.2140   14.0440  108.7860 C.2       1 NAT         0.1728
     10 N10        19.8820   15.3390  108.6480 N.am      1 NAT        -0.2241
     11 C11        18.5380   15.8290  108.9490 C.2       1 NAT         0.0711
     12 C12        17.6030   14.9940  109.4580 C.2       1 NAT         0.0645
     13 O13        15.9420   11.6470  113.9240 O.3       1 NAT        -0.3350
     14 C14        16.1700   15.3890  109.6840 C.2       1 NAT         0.2146
     15 O15        15.8650   16.7060  109.6070 O.3       1 NAT        -0.2891
     16 C16        14.5240   17.3280  109.7240 C.3       1 NAT         0.0710
     17 C17        14.6040   18.8410  109.4300 C.3       1 NAT        -0.0375
     18 C18        18.3510   17.2970  108.6310 C.3       1 NAT        -0.0007
     19 O19        15.3490   14.5470  109.9340 O.2       1 NAT        -0.3956
     20 S20        21.6940   13.5190  108.2240 S.2       1 NAT        -0.2910
     21 H1         19.7265   14.6731  111.7706 H         1 NAT         0.0464
     22 H2         16.1721   12.1334  111.2771 H         1 NAT         0.0477
     23 H3         17.7630   12.9896  115.2829 H         1 NAT         0.0483
     24 H4         19.6508   14.3906  114.3043 H         1 NAT         0.0571
     25 H5         17.2818   12.9126  109.4628 H         1 NAT         0.0777
     26 H6         19.5630   12.2244  109.3872 H         1 NAT         0.2022
     27 H7         20.5747   15.9864  108.3301 H         1 NAT         0.2453
     28 H8         15.0750   11.9698  113.7079 H         1 NAT         0.2479
     29 H9         14.1424   17.1770  110.7446 H         1 NAT         0.0606
     30 H10        13.8410   16.8546  109.0034 H         1 NAT         0.0606
     31 H11        13.6020   19.2857  109.5211 H         1 NAT         0.0255
     32 H12        14.9827   18.9966  108.4091 H         1 NAT         0.0255
     33 H13        15.2842   19.3191  110.1503 H         1 NAT         0.0255
     34 H14        17.3228   17.5980  108.8803 H         1 NAT         0.0452
     35 H15        18.5330   17.4662  107.5594 H         1 NAT         0.0452
     36 H16        19.0612   17.8936  109.2222 H         1 NAT         0.0452
@<TRIPOS>BOND
     1    1    6 ar 
     2    1    2 ar 
     3    2    7 1  
     4    2    3 ar 
     5    3    4 ar 
     6    4   13 1  
     7    4    5 ar 
     8    5    6 ar 
     9    7   12 1  
    10    7    8 1  
    11    8    9 am 
    12    9   20 2  
    13    9   10 am 
    14   10   11 am 
    15   11   18 1  
    16   11   12 2  
    17   12   14 1  
    18   14   19 2  
    19   14   15 1  
    20   15   16 1  
    21   16   17 1  
    22    1   21 1  
    23    3   22 1  
    24    5   23 1  
    25    6   24 1  
    26    7   25 1  
    27    8   26 1  
    28   10   27 1  
    29   13   28 1  
    30   16   29 1  
    31   16   30 1  
    32   17   31 1  
    33   17   32 1  
    34   17   33 1  
    35   18   34 1  
    36   18   35 1  
    37   18   36 1  
@<TRIPOS>SUBSTRUCTURE
     1 NAT         1

