### 
### Created by X-TOOL on Mon Sep 10 21:12:51 2018
### 

@<TRIPOS>MOLECULE
1q1g_ligand
   37    39     1     0     0
SMALL
GAST_HUCK


@<TRIPOS>ATOM
      1 CS         10.0600    1.4930   95.8060 C.3       1 MTI        -0.0179
      2 S2          9.1690    0.7520   94.4400 S.3       1 MTI        -0.1585
      3 C3          8.4420    2.2270   93.6690 C.3       1 MTI         0.0389
      4 C4          8.2100    2.0730   92.1670 C.3       1 MTI         0.0169
      5 N5          7.2450    3.0960   91.7510 N.4       1 MTI         0.2425
      6 C6          9.3560    3.7780   90.8520 C.3       1 MTI         0.1327
      7 O7          9.7040    3.9350   89.4300 O.3       1 MTI        -0.3821
      8 C8          9.4870    2.2590   91.3320 C.3       1 MTI         0.1304
      9 O9          9.4770    1.3230   90.1740 O.3       1 MTI        -0.3833
     10 C10         7.8870    4.2530   91.1400 C.3       1 MTI         0.0243
     11 C9          7.7120    5.4680   92.1150 C.2       1 MTI         0.0057
     12 C8          6.4840    5.9820   92.5230 C.2       1 MTI         0.0223
     13 N7          6.5410    7.0010   93.3410 N.pl3     1 MTI        -0.2895
     14 C5          7.8920    7.2270   93.5320 C.2       1 MTI         0.1348
     15 C6          8.5660    8.2330   94.3350 C.2       1 MTI         0.2413
     16 O6          8.0270    9.1020   95.0270 O.2       1 MTI        -0.4013
     17 N1          9.9960    8.1590   94.2860 N.am      1 MTI        -0.2067
     18 C2         10.7160    7.2090   93.5330 C.2       1 MTI         0.1146
     19 N3         10.0740    6.2510   92.7650 N.2       1 MTI        -0.3199
     20 C4          8.6570    6.3040   92.7940 C.2       1 MTI         0.0184
     21 H1         10.5668    0.7057   96.3833 H         1 MTI         0.0341
     22 H2          9.3534    2.0281   96.4575 H         1 MTI         0.0341
     23 H3         10.8069    2.2001   95.4161 H         1 MTI         0.0341
     24 H4          9.1214    3.0766   93.8318 H         1 MTI         0.0432
     25 H5          7.4754    2.4327   94.1520 H         1 MTI         0.0432
     26 H6          7.8010    1.0707   91.9718 H         1 MTI         0.0885
     27 H7          6.7295    3.4027   92.5611 H         1 MTI         0.2029
     28 H8          6.6097    2.6885   91.0829 H         1 MTI         0.2029
     29 H9         10.0495    4.3952   91.4420 H         1 MTI         0.0693
     30 H10        10.6011    3.6546   89.2919 H         1 MTI         0.2103
     31 H11        10.3947    2.1029   91.9334 H         1 MTI         0.0680
     32 H12        10.2071    1.5232   89.6001 H         1 MTI         0.2102
     33 H13         7.4031    4.5071   90.1854 H         1 MTI         0.0961
     34 H14         5.5380    5.5630   92.1833 H         1 MTI         0.0779
     35 H15         5.7528    7.5209   93.7525 H         1 MTI         0.2273
     36 H16        10.5172    8.8243   94.8205 H         1 MTI         0.2519
     37 H17        11.8046    7.2287   93.5556 H         1 MTI         0.1426
@<TRIPOS>BOND
     1    2    1 1  
     2    3    2 1  
     3    4    3 1  
     4    4    5 1  
     5    8    4 1  
     6    5   10 1  
     7    6    7 1  
     8    6    8 1  
     9    6   10 1  
    10    8    9 1  
    11   10   11 1  
    12   11   12 2  
    13   11   20 1  
    14   12   13 1  
    15   13   14 1  
    16   14   15 1  
    17   14   20 2  
    18   15   16 2  
    19   15   17 am 
    20   17   18 am 
    21   18   19 2  
    22   19   20 1  
    23    1   21 1  
    24    1   22 1  
    25    1   23 1  
    26    3   24 1  
    27    3   25 1  
    28    4   26 1  
    29    5   27 1  
    30    5   28 1  
    31    6   29 1  
    32    7   30 1  
    33    8   31 1  
    34    9   32 1  
    35   10   33 1  
    36   12   34 1  
    37   13   35 1  
    38   17   36 1  
    39   18   37 1  
@<TRIPOS>SUBSTRUCTURE
     1 MTI         1

