### 
### Created by X-TOOL on Mon Sep 10 21:12:50 2018
### 

@<TRIPOS>MOLECULE
1q1m_ligand
   45    47     1     0     0
SMALL
GAST_HUCK


@<TRIPOS>ATOM
      1 C1         33.0460   31.0940   18.4330 C.ar      1 234         0.1411
      2 C2         32.5060   30.4810   19.6090 C.ar      1 234         0.0522
      3 C3         31.1140   30.6200   19.8430 C.ar      1 234        -0.0516
      4 C4         30.2740   31.3340   18.9520 C.ar      1 234        -0.0437
      5 C5         30.8390   31.9260   17.7920 C.ar      1 234        -0.0628
      6 C6         32.2250   31.8120   17.5260 C.ar      1 234        -0.0307
      7 C7         33.2940   29.7050   20.6230 C.2       1 234         0.1630
      8 O12        32.6890   29.1670   21.7470 O.3       1 234        -0.1598
      9 N13        33.7090   28.5200   22.4770 N.2       1 234        -0.1265
     10 C14        34.8870   28.6610   21.8140 C.2       1 234         0.0884
     11 C15        34.6190   29.4330   20.6050 C.2       1 234        -0.0107
     12 C16        36.2540   28.1260   22.2250 C.2       1 234         0.0705
     13 O1         37.2240   28.8720   22.2250 O.co2     1 234        -0.5609
     14 O2         36.2880   26.8000   22.5800 O.co2     1 234        -0.5609
     15 C8         28.8090   31.4860   19.1960 C.2       1 234        -0.0672
     16 C32        24.7490   29.9960   21.4990 C.ar      1 234         0.1096
     17 C33        23.9270   31.1860   21.5410 C.ar      1 234        -0.0372
     18 C34        22.5400   31.1190   21.8360 C.ar      1 234        -0.0744
     19 C35        21.9370   29.8670   22.0990 C.ar      1 234        -0.0377
     20 C36        22.7000   28.6690   22.0720 C.ar      1 234         0.1026
     21 C37        24.1110   28.7080   21.7780 C.ar      1 234         0.1183
     22 C38        24.8700   27.4200   21.7670 C.2       1 234         0.2509
     23 O11        24.9340   26.7280   22.7660 O.2       1 234        -0.3702
     24 O4         25.4600   27.0980   20.6020 O.3       1 234        -0.2845
     25 C39        26.2110   25.8660   20.5310 C.3       1 234         0.0641
     26 O14        22.0090   27.4920   22.3470 O.3       1 234        -0.3301
     27 O3         26.1550   30.0390   21.2020 O.3       1 234        -0.3001
     28 C40        26.6500   31.1500   20.4670 C.3       1 234         0.1036
     29 C41        28.1310   30.9790   20.2660 C.2       1 234        -0.0455
     30 F1         34.3520   31.0140   18.1420 F         1 234        -0.1838
     31 H1         30.6805   30.1677   20.7277 H         1 234         0.0576
     32 H2         30.2032   32.4705   17.1033 H         1 234         0.0574
     33 H3         32.6533   32.2676   16.6405 H         1 234         0.0595
     34 H4         35.3388   29.7296   19.8436 H         1 234         0.0433
     35 H5         28.2349   32.0471   18.4602 H         1 234         0.0425
     36 H6         24.3805   32.1504   21.3427 H         1 234         0.0464
     37 H7         21.9449   32.0247   21.8596 H         1 234         0.0600
     38 H8         20.8777   29.8209   22.3244 H         1 234         0.0464
     39 H9         26.6277   25.7484   19.5198 H         1 234         0.0574
     40 H10        25.5468   25.0182   20.7548 H         1 234         0.0574
     41 H11        27.0305   25.8933   21.2643 H         1 234         0.0574
     42 H12        22.3860   27.0765   23.1137 H         1 234         0.2507
     43 H13        26.4577   32.0779   21.0256 H         1 234         0.0818
     44 H14        26.1479   31.1997   19.4896 H         1 234         0.0818
     45 H15        28.6918   30.4209   21.0143 H         1 234         0.0741
@<TRIPOS>BOND
     1    2    1 ar 
     2    6    1 ar 
     3    1   30 1  
     4    3    2 ar 
     5    2    7 1  
     6    4    3 ar 
     7    4    5 ar 
     8   15    4 1  
     9    5    6 ar 
    10    7    8 1  
    11    7   11 2  
    12    8    9 1  
    13   10    9 2  
    14   11   10 1  
    15   10   12 1  
    16   12   13 ar 
    17   12   14 ar 
    18   29   15 2  
    19   16   17 ar 
    20   16   21 ar 
    21   27   16 1  
    22   17   18 ar 
    23   18   19 ar 
    24   20   19 ar 
    25   21   20 ar 
    26   20   26 1  
    27   21   22 1  
    28   22   23 2  
    29   22   24 1  
    30   24   25 1  
    31   28   27 1  
    32   28   29 1  
    33    3   31 1  
    34    5   32 1  
    35    6   33 1  
    36   11   34 1  
    37   15   35 1  
    38   17   36 1  
    39   18   37 1  
    40   19   38 1  
    41   25   39 1  
    42   25   40 1  
    43   25   41 1  
    44   26   42 1  
    45   28   43 1  
    46   28   44 1  
    47   29   45 1  
@<TRIPOS>SUBSTRUCTURE
     1 234         1

