### 
### Created by X-TOOL on Mon Sep 10 21:12:51 2018
### 

@<TRIPOS>MOLECULE
1q1y_ligand
   60    60     1     0     0
SMALL
GAST_HUCK


@<TRIPOS>ATOM
      1 C1        -17.7270  144.2480   43.5130 C.3       1 BB2         0.0585
      2 C2        -18.6200  143.4310   42.5920 C.2       1 BB2         0.2013
      3 O1        -19.8200  143.6990   42.5520 O.2       1 BB2        -0.3968
      4 N1        -18.0370  142.4380   41.9150 N.am      1 BB2        -0.1641
      5 O2        -18.6800  141.6450   41.1490 O.3       1 BB2        -0.2717
      6 C3        -17.4860  143.6490   44.9310 C.3       1 BB2         0.0654
      7 C4        -16.7950  144.8090   45.6770 C.2       1 BB2         0.1836
      8 O3        -15.6450  145.1960   45.4100 O.2       1 BB2        -0.3965
      9 C5        -16.6810  142.3310   44.8230 C.3       1 BB2        -0.0311
     10 C6        -15.5580  141.8030   45.7250 C.3       1 BB2        -0.0506
     11 C7        -15.9960  141.5950   47.1760 C.3       1 BB2        -0.0532
     12 C8        -16.5630  140.2510   47.6350 C.3       1 BB2        -0.0559
     13 C9        -16.9280  140.0640   49.1050 C.3       1 BB2        -0.0653
     14 N2        -17.6040  145.3820   46.5740 N.am      1 BB2        -0.2650
     15 C10       -17.3240  146.5820   47.3590 C.3       1 BB2         0.1333
     16 C11       -18.6180  147.3930   47.5810 C.3       1 BB2        -0.0062
     17 C12       -19.4220  147.7030   46.3220 C.3       1 BB2        -0.0584
     18 C13       -18.6370  148.5750   48.5620 C.3       1 BB2        -0.0584
     19 C14       -16.4970  146.3220   48.6230 C.2       1 BB2         0.2061
     20 O4        -17.0430  145.6030   49.4690 O.2       1 BB2        -0.3942
     21 N3        -15.3310  147.0020   48.8300 N.am      1 BB2        -0.2556
     22 C15       -14.5450  147.0910   50.0710 C.3       1 BB2         0.0972
     23 C16       -14.6330  147.7740   47.7710 C.3       1 BB2         0.0362
     24 C17       -13.3660  148.3460   48.3630 C.3       1 BB2        -0.0288
     25 C18       -13.2870  147.9190   49.7920 C.3       1 BB2        -0.0159
     26 C19       -15.2650  147.7540   51.2560 C.2       1 BB2         0.0603
     27 O5        -15.9827  148.7778   51.0999 O.co2     1 BB2        -0.5666
     28 O         -15.1347  147.2629   52.4090 O.co2     1 BB2        -0.5666
     29 H1        -18.1885  145.2385   43.6391 H         1 BB2         0.0529
     30 H2        -16.7485  144.3591   43.0229 H         1 BB2         0.0529
     31 H3        -17.0501  142.3099   42.0130 H         1 BB2         0.2216
     32 H4        -18.0777  141.0167   40.7681 H         1 BB2         0.2490
     33 H5        -18.4436  143.4206   45.4217 H         1 BB2         0.0563
     34 H6        -16.2297  142.3690   43.8206 H         1 BB2         0.0294
     35 H7        -17.4464  141.5415   44.8509 H         1 BB2         0.0294
     36 H8        -14.7292  142.5261   45.7106 H         1 BB2         0.0267
     37 H9        -15.2111  140.8395   45.3233 H         1 BB2         0.0267
     38 H10       -16.7698  142.3492   47.3819 H         1 BB2         0.0265
     39 H11       -15.1139  141.7942   47.8022 H         1 BB2         0.0265
     40 H12       -15.8135  139.4843   47.3892 H         1 BB2         0.0263
     41 H13       -17.4773  140.0706   47.0507 H         1 BB2         0.0263
     42 H14       -17.3178  139.0470   49.2595 H         1 BB2         0.0230
     43 H15       -17.6966  140.7982   49.3883 H         1 BB2         0.0230
     44 H16       -16.0328  140.2119   49.7268 H         1 BB2         0.0230
     45 H17       -18.4910  144.9448   46.7228 H         1 BB2         0.1883
     46 H18       -16.6833  147.2129   46.7254 H         1 BB2         0.0802
     47 H19       -19.2469  146.6549   48.1003 H         1 BB2         0.0343
     48 H20       -20.3181  148.2808   46.5923 H         1 BB2         0.0234
     49 H21       -19.7243  146.7621   45.8390 H         1 BB2         0.0234
     50 H22       -18.8033  148.2897   45.6270 H         1 BB2         0.0234
     51 H23       -18.0497  148.3189   49.4561 H         1 BB2         0.0234
     52 H24       -19.6749  148.7919   48.8548 H         1 BB2         0.0234
     53 H25       -18.2000  149.4606   48.0776 H         1 BB2         0.0234
     54 H26       -14.2592  146.0708   50.3669 H         1 BB2         0.0728
     55 H27       -15.2801  148.5899   47.4168 H         1 BB2         0.0524
     56 H28       -14.3846  147.1111   46.9290 H         1 BB2         0.0524
     57 H29       -13.3891  149.4441   48.3029 H         1 BB2         0.0286
     58 H30       -12.4928  147.9669   47.8119 H         1 BB2         0.0286
     59 H31       -12.3867  147.3088   49.9566 H         1 BB2         0.0306
     60 H32       -13.2585  148.7998   50.4503 H         1 BB2         0.0306
@<TRIPOS>BOND
     1    1    2 1  
     2    1    6 1  
     3    2    3 2  
     4    2    4 am 
     5    4    5 1  
     6    6    7 1  
     7    6    9 1  
     8    7    8 2  
     9    7   14 am 
    10    9   10 1  
    11   10   11 1  
    12   11   12 1  
    13   12   13 1  
    14   14   15 1  
    15   15   16 1  
    16   15   19 1  
    17   16   17 1  
    18   16   18 1  
    19   19   20 2  
    20   19   21 am 
    21   21   22 1  
    22   21   23 1  
    23   22   25 1  
    24   22   26 1  
    25   23   24 1  
    26   24   25 1  
    27   26   27 ar 
    28   26   28 ar 
    29    1   29 1  
    30    1   30 1  
    31    4   31 1  
    32    5   32 1  
    33    6   33 1  
    34    9   34 1  
    35    9   35 1  
    36   10   36 1  
    37   10   37 1  
    38   11   38 1  
    39   11   39 1  
    40   12   40 1  
    41   12   41 1  
    42   13   42 1  
    43   13   43 1  
    44   13   44 1  
    45   14   45 1  
    46   15   46 1  
    47   16   47 1  
    48   17   48 1  
    49   17   49 1  
    50   17   50 1  
    51   18   51 1  
    52   18   52 1  
    53   18   53 1  
    54   22   54 1  
    55   23   55 1  
    56   23   56 1  
    57   24   57 1  
    58   24   58 1  
    59   25   59 1  
    60   25   60 1  
@<TRIPOS>SUBSTRUCTURE
     1 BB2         1

