### 
### Created by X-TOOL on Mon Sep 10 21:12:50 2018
### 

@<TRIPOS>MOLECULE
1q3d_ligand
   62    69     1     0     0
SMALL
GAST_HUCK


@<TRIPOS>ATOM
      1 C1         37.4110   11.3740   33.2760 C.ar      1 STU        -0.0696
      2 C2         36.4690   11.9420   32.4000 C.ar      1 STU        -0.0759
      3 C3         36.2810   11.4040   31.0730 C.ar      1 STU        -0.0739
      4 C4         37.0320   10.3000   30.6100 C.ar      1 STU        -0.0408
      5 C5         38.0110    9.6980   31.4950 C.ar      1 STU         0.0695
      6 N6         38.8810    8.5890   31.3470 N.pl3     1 STU        -0.2292
      7 C7         39.5630    8.4540   32.5410 C.ar      1 STU         0.0978
      8 C8         40.5000    7.4290   32.9490 C.ar      1 STU         0.0952
      9 N9         41.0170    6.3890   32.2050 N.pl3     1 STU        -0.2376
     10 C10        41.8630    5.6530   33.0380 C.ar      1 STU         0.0681
     11 C11        42.6520    4.4930   32.6490 C.ar      1 STU        -0.0404
     12 C12        43.4490    3.9950   33.7140 C.ar      1 STU        -0.0732
     13 C13        43.4700    4.5600   35.0160 C.ar      1 STU        -0.0750
     14 C14        42.6940    5.6880   35.3840 C.ar      1 STU        -0.0685
     15 C15        41.8700    6.2410   34.3300 C.ar      1 STU        -0.0072
     16 C16        41.0080    7.3750   34.2620 C.ar      1 STU        -0.0018
     17 C17        40.5750    8.3860   35.1900 C.ar      1 STU         0.0320
     18 C18        40.9550    8.6580   36.5920 C.2       1 STU         0.1871
     19 N19        40.1490    9.6710   37.0110 N.am      1 STU        -0.2790
     20 C20        39.3860   10.2770   35.9720 C.3       1 STU         0.0603
     21 C21        39.6690    9.3810   34.7880 C.ar      1 STU        -0.0168
     22 C22        39.1580    9.4250   33.4730 C.ar      1 STU         0.0011
     23 C23        38.1890   10.2330   32.8200 C.ar      1 STU        -0.0075
     24 C24        39.0100    7.6130   30.1950 C.3       1 STU         0.2020
     25 C25        38.0210    6.3510   30.3680 C.3       1 STU         0.1556
     26 C26        38.5770    4.9940   29.7840 C.3       1 STU         0.0141
     27 C27        39.9570    4.7650   30.4360 C.3       1 STU         0.0455
     28 C28        40.7830    6.0300   30.8000 C.3       1 STU         0.1668
     29 O29        40.4260    7.2110   30.1210 O.3       1 STU        -0.3149
     30 O30        41.8680    8.0920   37.2510 O.2       1 STU        -0.3964
     31 N31        37.5720    3.9090   29.9630 N.4       1 STU         0.2291
     32 C32        36.4640    3.8880   28.9580 C.3       1 STU        -0.0445
     33 O33        37.9400    6.1060   31.8040 O.3       1 STU        -0.3686
     34 C34        36.6650    6.3720   32.4410 C.3       1 STU         0.0373
     35 C35        38.8300    8.2060   28.7750 C.3       1 STU        -0.0059
     36 H1         37.5544   11.7786   34.2714 H         1 STU         0.0566
     37 H2         35.8785   12.7915   32.7237 H         1 STU         0.0516
     38 H3         35.5468   11.8575   30.4169 H         1 STU         0.0561
     39 H4         36.8790    9.9096   29.6104 H         1 STU         0.0538
     40 H5         42.6333    4.0576   31.6565 H         1 STU         0.0539
     41 H6         44.0778    3.1333   33.5213 H         1 STU         0.0568
     42 H7         44.1100    4.1074   35.7647 H         1 STU         0.0516
     43 H8         42.7161    6.1067   36.3836 H         1 STU         0.0576
     44 H9         40.0968    9.9646   37.9655 H         1 STU         0.1863
     45 H10        39.7234   11.3063   35.7804 H         1 STU         0.0679
     46 H11        38.3140   10.2824   36.2183 H         1 STU         0.0679
     47 H12        37.0386    6.5812   29.9300 H         1 STU         0.0710
     48 H13        38.7349    5.1098   28.7016 H         1 STU         0.0880
     49 H14        40.5589    4.1652   29.7374 H         1 STU         0.0372
     50 H15        39.7957    4.1957   31.3633 H         1 STU         0.0372
     51 H16        41.7836    5.7760   30.4203 H         1 STU         0.0933
     52 H17        37.1606    4.0140   30.8772 H         1 STU         0.2014
     53 H18        38.0553    3.0259   29.9114 H         1 STU         0.2014
     54 H19        35.7828    3.0535   29.1807 H         1 STU         0.0777
     55 H20        36.8854    3.7583   27.9502 H         1 STU         0.0777
     56 H21        35.9090    4.8366   29.0042 H         1 STU         0.0777
     57 H22        36.7382    6.1482   33.5155 H         1 STU         0.0524
     58 H23        35.8889    5.7386   31.9866 H         1 STU         0.0524
     59 H24        36.4006    7.4309   32.3042 H         1 STU         0.0524
     60 H25        38.9448    7.4077   28.0270 H         1 STU         0.0284
     61 H26        39.5903    8.9820   28.6026 H         1 STU         0.0284
     62 H27        37.8271    8.6492   28.6871 H         1 STU         0.0284
@<TRIPOS>BOND
     1    1    2 ar 
     2    1   23 ar 
     3    2    3 ar 
     4    3    4 ar 
     5    4    5 ar 
     6    5    6 1  
     7    5   23 ar 
     8    6    7 1  
     9    6   24 1  
    10    7    8 ar 
    11    7   22 ar 
    12    8    9 1  
    13    8   16 ar 
    14    9   10 1  
    15    9   28 1  
    16   10   11 ar 
    17   10   15 ar 
    18   11   12 ar 
    19   12   13 ar 
    20   13   14 ar 
    21   14   15 ar 
    22   15   16 1  
    23   16   17 ar 
    24   17   18 1  
    25   17   21 ar 
    26   18   19 am 
    27   18   30 2  
    28   19   20 1  
    29   20   21 1  
    30   21   22 ar 
    31   22   23 1  
    32   24   25 1  
    33   24   29 1  
    34   24   35 1  
    35   25   26 1  
    36   25   33 1  
    37   26   27 1  
    38   26   31 1  
    39   27   28 1  
    40   28   29 1  
    41   31   32 1  
    42   33   34 1  
    43    1   36 1  
    44    2   37 1  
    45    3   38 1  
    46    4   39 1  
    47   11   40 1  
    48   12   41 1  
    49   13   42 1  
    50   14   43 1  
    51   19   44 1  
    52   20   45 1  
    53   20   46 1  
    54   25   47 1  
    55   26   48 1  
    56   27   49 1  
    57   27   50 1  
    58   28   51 1  
    59   31   52 1  
    60   31   53 1  
    61   32   54 1  
    62   32   55 1  
    63   32   56 1  
    64   34   57 1  
    65   34   58 1  
    66   34   59 1  
    67   35   60 1  
    68   35   61 1  
    69   35   62 1  
@<TRIPOS>SUBSTRUCTURE
     1 STU         1

