### 
### Created by X-TOOL on Mon Sep 10 21:12:50 2018
### 

@<TRIPOS>MOLECULE
1q3w_ligand
   33    36     1     0     0
SMALL
GAST_HUCK


@<TRIPOS>ATOM
      1 N1         24.1660  -19.5740    7.2620 N.am      1 ATU        -0.1658
      2 C2         22.8120  -19.5350    7.1670 C.2       1 ATU         0.2827
      3 C3         21.9550  -19.2230    8.3870 C.3       1 ATU         0.1517
      4 O4         22.2480  -19.7300    6.0920 O.2       1 ATU        -0.3584
      5 C5         24.8840  -18.1630    9.1830 C.ar      1 ATU         0.1672
      6 C6         25.1210  -19.0570    8.0570 C.ar      1 ATU         0.1913
      7 C7         26.3990  -19.7170    7.9560 C.ar      1 ATU         0.0287
      8 C8         27.4280  -19.5100    8.9340 C.ar      1 ATU        -0.0232
      9 C9         27.1890  -18.6230   10.0500 C.ar      1 ATU        -0.0235
     10 C10        25.9240  -17.9590   10.1640 C.ar      1 ATU         0.0053
     11 N11        23.4500  -16.2270    9.9560 N.pl3     1 ATU        -0.1947
     12 C12        22.3050  -17.9560    9.1650 C.2       1 ATU         0.1594
     13 C13        23.6730  -17.4840    9.3890 C.2       1 ATU         0.2396
     14 C14        21.2910  -16.9330    9.4990 C.ar      1 ATU         0.1233
     15 C15        22.1120  -15.7700   10.0390 C.ar      1 ATU         0.1394
     16 C16        21.4350  -14.5800   10.4680 C.ar      1 ATU         0.0113
     17 C17        20.0090  -14.4980   10.3860 C.ar      1 ATU         0.0006
     18 C18        19.2200  -15.5950    9.8750 C.ar      1 ATU         0.1140
     19 C19        19.8730  -16.8060    9.4370 C.ar      1 ATU         0.0236
     20 N20        17.7250  -15.4840    9.7960 N.2       1 ATU        -0.2149
     21 O21        17.1340  -14.4820   10.1540 O.2       1 ATU        -0.4923
     22 O22        17.0590  -16.3970    9.3680 O.2       1 ATU        -0.4923
     23 H1         24.5631  -20.1442    6.5428 H         1 ATU         0.2921
     24 H2         22.0389  -20.0734    9.0797 H         1 ATU         0.0988
     25 H3         20.9131  -19.1283    8.0472 H         1 ATU         0.0988
     26 H4         26.5864  -20.3844    7.1226 H         1 ATU         0.0704
     27 H5         28.3812  -20.0169    8.8364 H         1 ATU         0.0912
     28 H6         27.9601  -18.4614   10.7945 H         1 ATU         0.0770
     29 H7         25.7450  -17.2928   11.0002 H         1 ATU         0.0827
     30 H8         24.2317  -15.6523   10.3018 H         1 ATU         0.2479
     31 H9         22.0043  -13.7424   10.8545 H         1 ATU         0.0707
     32 H10        19.5099  -13.5934   10.7143 H         1 ATU         0.0958
     33 H11        19.2777  -17.6281    9.0566 H         1 ATU         0.1015
@<TRIPOS>BOND
     1    1    2 am 
     2    1    6 1  
     3    2    3 1  
     4    2    4 2  
     5    3   12 1  
     6    6    7 ar 
     7    7    8 ar 
     8    8    9 ar 
     9    9   10 ar 
    10   12   13 2  
    11   12   14 1  
    12   14   15 ar 
    13   14   19 ar 
    14   15   16 ar 
    15   16   17 ar 
    16   17   18 ar 
    17   18   19 ar 
    18   18   20 1  
    19   20   21 2  
    20   20   22 2  
    21   15   11 1  
    22   13   11 1  
    23   13    5 1  
    24   10    5 ar 
    25    6    5 ar 
    26    1   23 1  
    27    3   24 1  
    28    3   25 1  
    29    7   26 1  
    30    8   27 1  
    31    9   28 1  
    32   10   29 1  
    33   11   30 1  
    34   16   31 1  
    35   17   32 1  
    36   19   33 1  
@<TRIPOS>SUBSTRUCTURE
     1 ATU         1

