### 
### Created by X-TOOL on Mon Sep 10 21:12:50 2018
### 

@<TRIPOS>MOLECULE
1q41_ligand
   32    35     1     0     0
SMALL
GAST_HUCK


@<TRIPOS>ATOM
      1 C1         40.3060    3.9180   35.3810 C.ar      1 IXM         0.0238
      2 C2         39.6890    5.2740   35.2240 C.2       1 IXM         0.1273
      3 C3         40.8210    3.8770   36.6990 C.ar      1 IXM         0.0721
      4 N4         40.5960    5.0550   37.3470 N.pl3     1 IXM        -0.2636
      5 C5         41.4700    2.7350   37.2090 C.ar      1 IXM        -0.0387
      6 C7         41.6140    1.6060   36.3620 C.ar      1 IXM        -0.0723
      7 C9         41.1020    1.6400   35.0270 C.ar      1 IXM        -0.0740
      8 C11        40.4370    2.8060   34.5230 C.ar      1 IXM        -0.0645
      9 C13        39.9390    5.9730   36.5560 C.2       1 IXM         0.1036
     10 C14        39.5920    7.2340   36.9340 C.2       1 IXM         0.0611
     11 C15        40.1170    7.7360   38.2760 C.2       1 IXM         0.2012
     12 N16        39.5880    9.0090   38.4350 N.am      1 IXM        -0.2441
     13 C17        38.7980    9.3720   37.3550 C.ar      1 IXM         0.0625
     14 C18        38.7520    8.3330   36.3870 C.ar      1 IXM        -0.0118
     15 C19        38.1100   10.5980   37.2150 C.ar      1 IXM        -0.0488
     16 C20        37.3330   10.7920   36.0480 C.ar      1 IXM        -0.0829
     17 C21        37.2640    9.7690   35.0520 C.ar      1 IXM        -0.0849
     18 C22        37.9780    8.5360   35.2210 C.ar      1 IXM        -0.0788
     19 O23        40.8470    7.1490   39.0760 O.2       1 IXM        -0.3973
     20 N24        39.0400    5.8050   34.2330 N.2       1 IXM        -0.1185
     21 O39        38.8830    5.0110   33.0960 O.3       1 IXM        -0.2304
     22 H1         40.8845    5.2385   38.3186 H         1 IXM         0.2200
     23 H2         41.8501    2.7195   38.2241 H         1 IXM         0.0539
     24 H3         42.1131    0.7158   36.7274 H         1 IXM         0.0575
     25 H4         41.2183    0.7725   34.3875 H         1 IXM         0.0520
     26 H5         40.0463    2.8322   33.5122 H         1 IXM         0.0580
     27 H6         39.7558    9.5921   39.2299 H         1 IXM         0.2234
     28 H7         38.1752   11.3659   37.9773 H         1 IXM         0.0480
     29 H8         36.7886   11.7191   35.9091 H         1 IXM         0.0515
     30 H9         36.6669    9.9262   34.1610 H         1 IXM         0.0471
     31 H10        37.9245    7.7656   34.4603 H         1 IXM         0.0507
     32 H11        38.4074    4.2214   33.3257 H         1 IXM         0.2968
@<TRIPOS>BOND
     1    1    2 1  
     2    1    3 ar 
     3    1    8 ar 
     4    2    9 1  
     5    2   20 2  
     6    3    4 1  
     7    3    5 ar 
     8    4    9 1  
     9    5    6 ar 
    10    6    7 ar 
    11    7    8 ar 
    12    9   10 2  
    13   10   11 1  
    14   10   14 1  
    15   11   12 am 
    16   11   19 2  
    17   12   13 1  
    18   13   14 ar 
    19   13   15 ar 
    20   14   18 ar 
    21   15   16 ar 
    22   16   17 ar 
    23   17   18 ar 
    24   20   21 1  
    25    4   22 1  
    26    5   23 1  
    27    6   24 1  
    28    7   25 1  
    29    8   26 1  
    30   12   27 1  
    31   15   28 1  
    32   16   29 1  
    33   17   30 1  
    34   18   31 1  
    35   21   32 1  
@<TRIPOS>SUBSTRUCTURE
     1 IXM         1

