### 
### Created by X-TOOL on Mon Sep 10 21:12:50 2018
### 

@<TRIPOS>MOLECULE
1q4l_ligand
   36    38     1     0     0
SMALL
GAST_HUCK


@<TRIPOS>ATOM
      1 C1         37.6640    7.0740   34.3670 C.ar      1 679        -0.0573
      2 C2         36.7560    7.0460   33.2770 C.ar      1 679        -0.0676
      3 C3         36.4670    8.2300   32.5630 C.ar      1 679        -0.0545
      4 C4         37.0960    9.4460   32.9440 C.ar      1 679         0.0342
      5 C5         38.0110    9.4790   34.0280 C.ar      1 679        -0.0436
      6 C6         38.3100    8.2890   34.7600 C.ar      1 679        -0.0158
      7 CL7        36.7440   10.8860   32.1020 Cl        1 679        -0.0724
      8 C8         39.2250    8.3150   35.8560 C.3       1 679         0.1267
      9 C9         40.2520    7.3860   36.2380 C.3       1 679         0.1596
     10 C10        40.7900    7.8610   37.4300 C.2       1 679         0.2342
     11 C11        39.2740    9.3230   36.8620 C.2       1 679         0.2237
     12 O12        38.5340   10.3170   36.9200 O.2       1 679        -0.3827
     13 O13        41.6590    7.2730   38.0830 O.2       1 679        -0.3833
     14 N14        40.2260    9.0380   37.7500 N.am      1 679        -0.1955
     15 N15        40.7360    6.2130   35.6170 N.pl3     1 679        -0.2977
     16 C16        40.6680    5.6890   34.3220 C.ar      1 679         0.0441
     17 C17        40.7840    6.5320   33.1640 C.ar      1 679        -0.0411
     18 C18        40.6860    5.9830   31.8780 C.ar      1 679        -0.0561
     19 C19        40.4780    4.5910   31.7210 C.ar      1 679         0.0404
     20 C20        40.3630    3.6900   32.8480 C.ar      1 679         0.0122
     21 C21        40.4620    4.2850   34.1570 C.ar      1 679        -0.0297
     22 CL2        40.3780    4.1460   30.1030 Cl        1 679        -0.0791
     23 C23        40.1700    2.3380   32.7420 C.2       1 679         0.0603
     24 O24        41.1170    1.6090   33.1310 O.co2     1 679        -0.5607
     25 O25        39.1290    1.8280   32.2410 O.co2     1 679        -0.5607
     26 H1         37.8718    6.1598   34.9111 H         1 679         0.0563
     27 H2         36.2828    6.1135   32.9915 H         1 679         0.0600
     28 H3         35.7715    8.2112   31.7317 H         1 679         0.0567
     29 H4         38.4865   10.4136   34.3027 H         1 679         0.0566
     30 H5         39.9202    8.8607   35.2011 H         1 679         0.0749
     31 H6         39.5127    6.7576   36.7562 H         1 679         0.0850
     32 H7         40.4802    9.6092   38.5304 H         1 679         0.2259
     33 H8         41.2574    5.6057   36.2652 H         1 679         0.1791
     34 H9         40.9479    7.5966   33.2855 H         1 679         0.0537
     35 H10        40.7692    6.6220   31.0063 H         1 679         0.0596
     36 H11        40.3784    3.6541   35.0345 H         1 679         0.0548
@<TRIPOS>BOND
     1    1    2 ar 
     2    1    6 ar 
     3    2    3 ar 
     4    3    4 ar 
     5    4    5 ar 
     6    4    7 1  
     7    5    6 ar 
     8    6    8 1  
     9    8    9 1  
    10    8   11 1  
    11    9   10 1  
    12    9   15 1  
    13   10   13 2  
    14   10   14 am 
    15   11   12 2  
    16   11   14 am 
    17   15   16 1  
    18   16   17 ar 
    19   16   21 ar 
    20   17   18 ar 
    21   18   19 ar 
    22   19   20 ar 
    23   19   22 1  
    24   20   21 ar 
    25   20   23 1  
    26   23   24 ar 
    27   23   25 ar 
    28    1   26 1  
    29    2   27 1  
    30    3   28 1  
    31    5   29 1  
    32    8   30 1  
    33    9   31 1  
    34   14   32 1  
    35   15   33 1  
    36   17   34 1  
    37   18   35 1  
    38   21   36 1  
@<TRIPOS>SUBSTRUCTURE
     1 679         1

