### 
### Created by X-TOOL on Mon Sep 10 21:12:51 2018
### 

@<TRIPOS>MOLECULE
1q4w_ligand
   21    22     1     0     0
SMALL
GAST_HUCK


@<TRIPOS>ATOM
      1 C6         18.6410   17.3940   19.0900 C.ar      1 DQU         0.0312
      2 N4         19.6860   17.6400   18.0540 N.pl3     1 DQU        -0.3412
      3 C1         17.3550   16.9100   18.7030 C.ar      1 DQU        -0.0487
      4 C2         16.3530   16.6710   19.6710 C.ar      1 DQU        -0.0660
      5 C3         16.6130   16.9090   21.0600 C.ar      1 DQU        -0.0076
      6 N3         15.6060   16.6680   21.9970 N.2       1 DQU        -0.3133
      7 C8         15.8180   16.8800   23.2760 C.2       1 DQU         0.2280
      8 N2         14.8440   16.6520   24.2460 N.pl3     1 DQU        -0.2818
      9 N1         17.0830   17.3690   23.7750 N.am      1 DQU        -0.1802
     10 C7         18.1780   17.6440   22.8740 C.2       1 DQU         0.2303
     11 O1         19.2450   18.0620   23.3400 O.2       1 DQU        -0.3873
     12 C4         17.9170   17.4020   21.4480 C.ar      1 DQU         0.0454
     13 C5         18.9190   17.6360   20.4540 C.ar      1 DQU        -0.0345
     14 H1         19.4786   17.4621   17.0609 H         1 DQU         0.1692
     15 H2         20.6149   17.9877   18.3319 H         1 DQU         0.1692
     16 H3         17.1447   16.7238   17.6560 H         1 DQU         0.0536
     17 H4         15.3810   16.3051   19.3604 H         1 DQU         0.0515
     18 H5         13.9149   16.3029   23.9708 H         1 DQU         0.1894
     19 H6         15.0531   16.8326   25.2382 H         1 DQU         0.1894
     20 H7         17.2018   17.5189   24.7565 H         1 DQU         0.2503
     21 H8         19.8963   18.0008   20.7488 H         1 DQU         0.0532
@<TRIPOS>BOND
     1    1    2 1  
     2    1    3 ar 
     3    1   13 ar 
     4    3    4 ar 
     5    4    5 ar 
     6    5    6 1  
     7    5   12 ar 
     8    6    7 2  
     9    7    8 1  
    10    7    9 am 
    11    9   10 am 
    12   10   11 2  
    13   10   12 1  
    14   12   13 ar 
    15    2   14 1  
    16    2   15 1  
    17    3   16 1  
    18    4   17 1  
    19    8   18 1  
    20    8   19 1  
    21    9   20 1  
    22   13   21 1  
@<TRIPOS>SUBSTRUCTURE
     1 DQU         1

