### 
### Created by X-TOOL on Mon Sep 10 21:12:51 2018
### 

@<TRIPOS>MOLECULE
1q4x_ligand
   51    53     1     0     0
SMALL
GAST_HUCK


@<TRIPOS>ATOM
      1 CAF        12.2610   25.0350   41.9740 C.ar      1 G24        -0.0587
      2 CAB        11.8490   23.9260   41.2090 C.ar      1 G24        -0.0683
      3 CAC        10.4950   23.5450   41.1850 C.ar      1 G24        -0.0686
      4 CAD         9.5510   24.2760   41.9330 C.ar      1 G24        -0.0683
      5 CAH         9.9600   25.3880   42.7010 C.ar      1 G24        -0.0587
      6 CAG        11.3220   25.7660   42.7210 C.ar      1 G24        -0.0338
      7 CAQ        11.7900   26.9620   43.5630 C.3       1 G24         0.0108
      8 CAP        12.0580   26.4560   44.9790 C.ar      1 G24        -0.0089
      9 CAO        13.3650   26.0290   45.2950 C.ar      1 G24        -0.0637
     10 CBA        11.0620   26.3660   45.9430 C.ar      1 G24         0.0843
     11 OBC         9.8160   26.8060   45.6220 O.3       1 G24        -0.3409
     12 CAZ        11.3450   25.8400   47.2250 C.ar      1 G24        -0.0457
     13 CAY        12.6590   25.4070   47.5420 C.ar      1 G24        -0.0742
     14 CAN        13.6730   25.5050   46.5700 C.ar      1 G24        -0.0529
     15 CAM        15.1510   25.1080   46.8520 C.3       1 G24        -0.0024
     16 CAL        15.3310   23.8170   47.6910 C.ar      1 G24        -0.0412
     17 CAX        15.6600   23.8770   49.0750 C.ar      1 G24        -0.0571
     18 CBB        15.8330   25.2290   49.7750 C.3       1 G24        -0.0373
     19 CAW        15.8420   22.7100   49.8270 C.ar      1 G24        -0.0449
     20 CAK        15.1950   22.5220   47.1100 C.ar      1 G24        -0.0571
     21 CAE        14.8310   22.3710   45.6230 C.3       1 G24        -0.0373
     22 CAJ        15.3830   21.3550   47.8790 C.ar      1 G24        -0.0449
     23 CAV        15.7040   21.4410   49.2330 C.ar      1 G24         0.0737
     24 OAU        15.8690   20.2840   49.9540 O.3       1 G24        -0.3115
     25 CAT        16.8550   20.4300   51.0060 C.3       1 G24         0.1209
     26 CAS        16.8960   19.1740   51.8690 C.2       1 G24         0.0651
     27 OAR        15.8770   18.8900   52.5430 O.co2     1 G24        -0.5663
     28 OAI        17.9490   18.4970   51.8570 O.co2     1 G24        -0.5663
     29 H1         13.3054   25.3251   41.9863 H         1 G24         0.0560
     30 H2         12.5782   23.3641   40.6366 H         1 G24         0.0600
     31 H3         10.1795   22.6930   40.5938 H         1 G24         0.0560
     32 H4          8.5072   23.9837   41.9188 H         1 G24         0.0600
     33 H5          9.2315   25.9504   43.2738 H         1 G24         0.0560
     34 H6         11.0077   27.7351   43.5832 H         1 G24         0.0561
     35 H7         12.7114   27.3838   43.1352 H         1 G24         0.0561
     36 H8         14.1458   26.1043   44.5469 H         1 G24         0.0473
     37 H9          9.2378   26.6869   46.3663 H         1 G24         0.2436
     38 H10        10.5575   25.7675   47.9663 H         1 G24         0.0506
     39 H11        12.8800   25.0044   48.5239 H         1 G24         0.0477
     40 H12        15.6302   25.9370   47.3934 H         1 G24         0.0514
     41 H13        15.6557   24.9607   45.8858 H         1 G24         0.0514
     42 H14        16.0835   25.0645   50.8334 H         1 G24         0.0374
     43 H15        14.8960   25.8009   49.7047 H         1 G24         0.0374
     44 H16        16.6437   25.7922   49.2896 H         1 G24         0.0374
     45 H17        16.0921   22.7845   50.8791 H         1 G24         0.0408
     46 H18        14.7734   21.3029   45.3663 H         1 G24         0.0374
     47 H19        15.6019   22.8554   45.0057 H         1 G24         0.0374
     48 H20        13.8574   22.8466   45.4337 H         1 G24         0.0374
     49 H21        15.2769   20.3820   47.4130 H         1 G24         0.0408
     50 H22        16.5908   21.2936   51.6340 H         1 G24         0.0782
     51 H23        17.8451   20.5935   50.5555 H         1 G24         0.0782
@<TRIPOS>BOND
     1    1    2 ar 
     2    1    6 ar 
     3    2    3 ar 
     4    3    4 ar 
     5    4    5 ar 
     6    5    6 ar 
     7    6    7 1  
     8    7    8 1  
     9    8    9 ar 
    10    8   10 ar 
    11    9   14 ar 
    12   10   11 1  
    13   10   12 ar 
    14   12   13 ar 
    15   13   14 ar 
    16   14   15 1  
    17   15   16 1  
    18   16   17 ar 
    19   16   20 ar 
    20   17   18 1  
    21   17   19 ar 
    22   19   23 ar 
    23   20   21 1  
    24   20   22 ar 
    25   22   23 ar 
    26   23   24 1  
    27   24   25 1  
    28   25   26 1  
    29   26   27 ar 
    30   26   28 ar 
    31    1   29 1  
    32    2   30 1  
    33    3   31 1  
    34    4   32 1  
    35    5   33 1  
    36    7   34 1  
    37    7   35 1  
    38    9   36 1  
    39   11   37 1  
    40   12   38 1  
    41   13   39 1  
    42   15   40 1  
    43   15   41 1  
    44   18   42 1  
    45   18   43 1  
    46   18   44 1  
    47   19   45 1  
    48   21   46 1  
    49   21   47 1  
    50   21   48 1  
    51   22   49 1  
    52   25   50 1  
    53   25   51 1  
@<TRIPOS>SUBSTRUCTURE
     1 G24         1

