### 
### Created by X-TOOL on Mon Sep 10 21:12:52 2018
### 

@<TRIPOS>MOLECULE
1q5k_ligand
   33    34     1     0     0
SMALL
GAST_HUCK


@<TRIPOS>ATOM
      1 C1         22.4890   23.5710    6.7560 C.2       1 TMU         0.4427
      2 S2         21.5370   24.4340    7.9290 S.3       1 TMU         0.2706
      3 N3         21.6340   23.3800    5.7730 N.2       1 TMU        -0.0425
      4 N4         23.8170   23.1860    6.8220 N.am      1 TMU        -0.0670
      5 C5         20.0340   24.4850    6.9870 C.2       1 TMU         0.3503
      6 C6         20.4050   23.8240    5.8600 C.2       1 TMU         0.2407
      7 C7         24.6410   23.5450    7.8400 C.2       1 TMU         0.4038
      8 N8         18.7490   25.0910    7.3530 N.2       1 TMU        -0.0678
      9 N9         25.9330   23.1230    7.7830 N.am      1 TMU        -0.2352
     10 O10        24.2360   24.2330    8.7800 O.2       1 TMU        -0.3311
     11 O11        17.9620   25.4350    6.4810 O.2       1 TMU        -0.4246
     12 O12        18.4810   25.2650    8.5270 O.2       1 TMU        -0.4246
     13 C13        26.9180   23.4530    8.8270 C.3       1 TMU         0.0629
     14 C14        26.9360   22.3610    9.8650 C.ar      1 TMU        -0.0318
     15 C15        26.8230   21.0020    9.4750 C.ar      1 TMU        -0.0668
     16 C16        27.0620   22.7010   11.2270 C.ar      1 TMU        -0.0668
     17 C17        26.8360   19.9850   10.4500 C.ar      1 TMU        -0.0395
     18 C18        27.0760   21.6910   12.2070 C.ar      1 TMU        -0.0395
     19 C19        26.9640   20.3240   11.8250 C.ar      1 TMU         0.0837
     20 O20        26.9710   19.3380   12.7790 O.3       1 TMU        -0.3257
     21 C21        28.3340   18.9430   13.0220 C.3       1 TMU         0.0579
     22 H1         24.1863   22.6177    6.0867 H         1 TMU         0.3685
     23 H2         19.6970   23.6669    5.0476 H         1 TMU         0.1753
     24 H3         26.2246   22.5684    7.0037 H         1 TMU         0.1906
     25 H4         26.6428   24.4060    9.3024 H         1 TMU         0.0661
     26 H5         27.9161   23.5441    8.3736 H         1 TMU         0.0661
     27 H6         26.7266   20.7457    8.4262 H         1 TMU         0.0531
     28 H7         27.1482   23.7411   11.5199 H         1 TMU         0.0531
     29 H8         26.7486   18.9463   10.1526 H         1 TMU         0.0525
     30 H9         27.1722   21.9542   13.2542 H         1 TMU         0.0525
     31 H10        28.3558   18.1518   13.7859 H         1 TMU         0.0575
     32 H11        28.9096   19.8108   13.3764 H         1 TMU         0.0575
     33 H12        28.7779   18.5646   12.0894 H         1 TMU         0.0575
@<TRIPOS>BOND
     1    1    2 1  
     2    1    3 2  
     3    1    4 1  
     4    2    5 1  
     5    3    6 1  
     6    4    7 am 
     7    5    6 2  
     8    5    8 1  
     9    7    9 am 
    10    7   10 2  
    11    8   11 2  
    12    8   12 2  
    13    9   13 1  
    14   13   14 1  
    15   14   15 ar 
    16   14   16 ar 
    17   15   17 ar 
    18   16   18 ar 
    19   17   19 ar 
    20   18   19 ar 
    21   19   20 1  
    22   20   21 1  
    23    4   22 1  
    24    6   23 1  
    25    9   24 1  
    26   13   25 1  
    27   13   26 1  
    28   15   27 1  
    29   16   28 1  
    30   17   29 1  
    31   18   30 1  
    32   21   31 1  
    33   21   32 1  
    34   21   33 1  
@<TRIPOS>SUBSTRUCTURE
     1 TMU         1

