### 
### Created by X-TOOL on Mon Sep 10 21:12:51 2018
### 

@<TRIPOS>MOLECULE
1q63_ligand
   32    34     1     0     0
SMALL
GAST_HUCK


@<TRIPOS>ATOM
      1 C1         17.1200   16.9780   18.7150 C.ar      1 AIQ        -0.0462
      2 C2         16.1100   16.7320   19.6880 C.ar      1 AIQ        -0.0327
      3 C9         14.6830   16.2780   19.3100 C.3       1 AIQ         0.0425
      4 C3         16.4330   16.9180   21.0770 C.ar      1 AIQ        -0.0035
      5 N3         15.5010   16.7080   22.0600 N.2       1 AIQ        -0.3160
      6 C8         15.7260   16.8550   23.3340 C.2       1 AIQ         0.2258
      7 N2         14.7460   16.6260   24.1880 N.pl3     1 AIQ        -0.2829
      8 N1         16.9230   17.2350   23.7910 N.am      1 AIQ        -0.1815
      9 C7         17.9550   17.4860   22.9740 C.2       1 AIQ         0.2280
     10 O1         19.0470   17.8380   23.3850 O.2       1 AIQ        -0.3881
     11 C4         17.7530   17.3350   21.4630 C.ar      1 AIQ         0.0394
     12 C5         18.7550   17.5760   20.4740 C.ar      1 AIQ        -0.0418
     13 C6         18.4340   17.4000   19.1020 C.ar      1 AIQ         0.0240
     14 N4         19.3640   17.6370   18.1490 N.pl3     1 AIQ        -0.3425
     15 S1         14.6000   14.6760   18.4390 S.3       1 AIQ        -0.0360
     16 C10        14.2310   15.2820   16.7880 C.2       1 AIQ         0.1774
     17 N5         15.0760   16.0320   16.0590 N.pl3     1 AIQ        -0.2554
     18 N6         13.1890   15.1010   16.1020 N.2       1 AIQ        -0.3291
     19 C11        14.4480   16.2820   14.8890 C.2       1 AIQ         0.0259
     20 C12        13.2320   15.7310   14.8140 C.2       1 AIQ        -0.0359
     21 H1         16.8913   16.8439   17.6639 H         1 AIQ         0.0468
     22 H2         14.2401   17.0458   18.6586 H         1 AIQ         0.0553
     23 H3         14.0928   16.1966   20.2346 H         1 AIQ         0.0553
     24 H4         13.8207   16.3328   23.8435 H         1 AIQ         0.1888
     25 H5         14.9066   16.7405   25.1989 H         1 AIQ         0.1888
     26 H6         17.0531   17.3356   24.7774 H         1 AIQ         0.2497
     27 H7         19.7501   17.8900   20.7677 H         1 AIQ         0.0472
     28 H8         19.1271   17.5081   17.1549 H         1 AIQ         0.1692
     29 H9         20.3091   17.9463   18.4173 H         1 AIQ         0.1692
     30 H10        16.0147   16.3521   16.3370 H         1 AIQ         0.2380
     31 H11        14.8882   16.8731   14.0873 H         1 AIQ         0.0794
     32 H12        12.4940   15.7537   14.0135 H         1 AIQ         0.0408
@<TRIPOS>BOND
     1    1    2 ar 
     2    1   13 ar 
     3    2    3 1  
     4    2    4 ar 
     5    3   15 1  
     6    4    5 1  
     7    4   11 ar 
     8    5    6 2  
     9    6    7 1  
    10    6    8 am 
    11    8    9 am 
    12    9   10 2  
    13    9   11 1  
    14   11   12 ar 
    15   12   13 ar 
    16   13   14 1  
    17   15   16 1  
    18   16   17 1  
    19   16   18 2  
    20   17   19 1  
    21   18   20 1  
    22   19   20 2  
    23    1   21 1  
    24    3   22 1  
    25    3   23 1  
    26    7   24 1  
    27    7   25 1  
    28    8   26 1  
    29   12   27 1  
    30   14   28 1  
    31   14   29 1  
    32   17   30 1  
    33   19   31 1  
    34   20   32 1  
@<TRIPOS>SUBSTRUCTURE
     1 AIQ         1

