### 
### Created by X-TOOL on Mon Sep 10 21:12:51 2018
### 

@<TRIPOS>MOLECULE
1q65_ligand
   40    41     1     0     0
SMALL
GAST_HUCK


@<TRIPOS>ATOM
      1 N4         19.2610   17.9060   18.1000 N.pl3     1 BHB        -0.3425
      2 C6         18.2250   17.6020   19.1760 C.ar      1 BHB         0.0239
      3 C1         16.9120   17.2020   18.7910 C.ar      1 BHB        -0.0464
      4 C2         15.9230   16.9120   19.7760 C.ar      1 BHB        -0.0355
      5 C3         16.2580   17.0290   21.1630 C.ar      1 BHB        -0.0037
      6 N3         15.3450   16.7670   22.1520 N.2       1 BHB        -0.3160
      7 C8         15.6070   16.8610   23.4160 C.2       1 BHB         0.2258
      8 N2         14.7070   16.6060   24.3190 N.pl3     1 BHB        -0.2829
      9 N1         16.8110   17.2230   23.8670 N.am      1 BHB        -0.1815
     10 C7         17.8300   17.5180   23.0530 C.2       1 BHB         0.2280
     11 O1         18.9310   17.8490   23.4760 O.2       1 BHB        -0.3881
     12 C41        17.5880   17.4310   21.5430 C.ar      1 BHB         0.0394
     13 C5         18.5710   17.7180   20.5530 C.ar      1 BHB        -0.0418
     14 C9         14.5240   16.4780   19.3280 C.3       1 BHB         0.0230
     15 S1         13.4120   17.9120   19.4250 S.3       1 BHB        -0.1432
     16 C16        12.6820   17.6940   17.7760 C.3       1 BHB         0.0357
     17 C17        13.6850   18.0380   16.6640 C.3       1 BHB        -0.0230
     18 N18        13.1250   17.7380   15.3250 N.4       1 BHB         0.2315
     19 C20        14.2110   17.6560   14.3270 C.3       1 BHB        -0.0433
     20 C19        12.1320   18.7530   14.9060 C.3       1 BHB        -0.0433
     21 H1         19.0097   17.8218   17.1047 H         1 BHB         0.1692
     22 H2         20.2124   18.1956   18.3682 H         1 BHB         0.1692
     23 H3         16.6632   17.1175   17.7393 H         1 BHB         0.0468
     24 H4         13.7586   16.3217   24.0350 H         1 BHB         0.1888
     25 H5         14.9424   16.6882   25.3184 H         1 BHB         0.1888
     26 H6         16.9565   17.2756   24.8550 H         1 BHB         0.2497
     27 H7         19.5703   18.0210   20.8439 H         1 BHB         0.0472
     28 H8         14.1554   15.6783   19.9872 H         1 BHB         0.0522
     29 H9         14.5643   16.1100   18.2922 H         1 BHB         0.0522
     30 H10        11.8062   18.3530   17.6832 H         1 BHB         0.0430
     31 H11        12.3666   16.6465   17.6608 H         1 BHB         0.0430
     32 H12        14.6004   17.4460   16.8108 H         1 BHB         0.0822
     33 H13        13.9284   19.1093   16.7192 H         1 BHB         0.0822
     34 H14        12.6623   16.8436   15.3703 H         1 BHB         0.2028
     35 H15        13.7840   17.4332   13.3380 H         1 BHB         0.0777
     36 H16        14.9116   16.8574   14.6122 H         1 BHB         0.0777
     37 H17        14.7460   18.6163   14.2875 H         1 BHB         0.0777
     38 H18        11.3268   18.8086   15.6534 H         1 BHB         0.0777
     39 H19        11.7083   18.4708   13.9309 H         1 BHB         0.0777
     40 H20        12.6230   19.7338   14.8225 H         1 BHB         0.0777
@<TRIPOS>BOND
     1    1    2 1  
     2    2    3 ar 
     3    2   13 ar 
     4    3    4 ar 
     5    4    5 ar 
     6    4   14 1  
     7    5    6 1  
     8    5   12 ar 
     9    6    7 2  
    10    7    8 1  
    11    7    9 am 
    12    9   10 am 
    13   10   11 2  
    14   10   12 1  
    15   12   13 ar 
    16   14   15 1  
    17   15   16 1  
    18   16   17 1  
    19   17   18 1  
    20   18   19 1  
    21   18   20 1  
    22    1   21 1  
    23    1   22 1  
    24    3   23 1  
    25    8   24 1  
    26    8   25 1  
    27    9   26 1  
    28   13   27 1  
    29   14   28 1  
    30   14   29 1  
    31   16   30 1  
    32   16   31 1  
    33   17   32 1  
    34   17   33 1  
    35   18   34 1  
    36   19   35 1  
    37   19   36 1  
    38   19   37 1  
    39   20   38 1  
    40   20   39 1  
    41   20   40 1  
@<TRIPOS>SUBSTRUCTURE
     1 BHB         1

