### 
### Created by X-TOOL on Mon Sep 10 21:12:51 2018
### 

@<TRIPOS>MOLECULE
1q66_ligand
   39    41     1     0     0
SMALL
GAST_HUCK


@<TRIPOS>ATOM
      1 C4         19.2550   17.8470   17.4810 C.3       1 KMB        -0.0067
      2 N4         19.0780   19.4040   17.2740 N.4       1 KMB         0.2295
      3 C6         18.3020   17.5100   18.6160 C.ar      1 KMB        -0.0102
      4 C1         16.9980   17.0170   18.3200 C.ar      1 KMB        -0.0578
      5 C2         16.0950   16.7000   19.3720 C.ar      1 KMB        -0.0293
      6 C3         16.4940   16.8800   20.7290 C.ar      1 KMB         0.0023
      7 N3         15.6510   16.5910   21.7690 N.2       1 KMB        -0.3120
      8 C8         15.9740   16.7410   23.0140 C.2       1 KMB         0.2281
      9 N2         15.1410   16.4560   23.9720 N.pl3     1 KMB        -0.2818
     10 N1         17.1700   17.1930   23.3860 N.am      1 KMB        -0.1803
     11 C7         18.1220   17.5250   22.5120 C.2       1 KMB         0.2297
     12 O1         19.2130   17.9370   22.8710 O.2       1 KMB        -0.3878
     13 C41        17.8090   17.3760   21.0200 C.ar      1 KMB         0.0441
     14 C5         18.7170   17.6910   19.9680 C.ar      1 KMB        -0.0526
     15 C9         14.7080   16.1680   19.0400 C.3       1 KMB         0.0372
     16 S1         13.5890   17.5870   18.7890 S.3       1 KMB        -0.0894
     17 C10        12.0330   16.7370   18.5970 C.ar      1 KMB         0.0173
     18 C11        11.9860   15.4150   18.0460 C.ar      1 KMB        -0.0497
     19 C12        10.7420   14.7420   17.8980 C.ar      1 KMB        -0.0678
     20 C13         9.5400   15.3860   18.2950 C.ar      1 KMB        -0.0687
     21 C14         9.5790   16.7020   18.8410 C.ar      1 KMB        -0.0678
     22 C15        10.8240   17.3750   18.9920 C.ar      1 KMB        -0.0497
     23 H1         20.2919   17.6058   17.7579 H         1 KMB         0.0960
     24 H2         18.9824   17.2986   16.5672 H         1 KMB         0.0960
     25 H3         19.6822   19.7148   16.5294 H         1 KMB         0.2006
     26 H4         19.3195   19.8858   18.1258 H         1 KMB         0.2006
     27 H5         18.1195   19.6044   17.0347 H         1 KMB         0.2006
     28 H6         16.6931   16.8830   17.2884 H         1 KMB         0.0505
     29 H7         14.2000   16.1021   23.7480 H         1 KMB         0.1893
     30 H8         15.4225   16.5843   24.9544 H         1 KMB         0.1893
     31 H9         17.3631   17.2877   24.3626 H         1 KMB         0.2503
     32 H10        19.7100   18.0633   20.1926 H         1 KMB         0.0517
     33 H11        14.3399   15.5475   19.8704 H         1 KMB         0.0548
     34 H12        14.7523   15.5635   18.1221 H         1 KMB         0.0548
     35 H13        12.9036   14.9254   17.7404 H         1 KMB         0.0565
     36 H14        10.7113   13.7408   17.4836 H         1 KMB         0.0600
     37 H15         8.5905   14.8753   18.1825 H         1 KMB         0.0559
     38 H16         8.6594   17.1909   19.1416 H         1 KMB         0.0600
     39 H17        10.8512   18.3754   19.4087 H         1 KMB         0.0565
@<TRIPOS>BOND
     1    1    2 1  
     2    1    3 1  
     3    3    4 ar 
     4    3   14 ar 
     5    4    5 ar 
     6    5    6 ar 
     7    5   15 1  
     8    6    7 1  
     9    6   13 ar 
    10    7    8 2  
    11    8    9 1  
    12    8   10 am 
    13   10   11 am 
    14   11   12 2  
    15   11   13 1  
    16   13   14 ar 
    17   15   16 1  
    18   16   17 1  
    19   17   18 ar 
    20   17   22 ar 
    21   18   19 ar 
    22   19   20 ar 
    23   20   21 ar 
    24   21   22 ar 
    25    1   23 1  
    26    1   24 1  
    27    2   25 1  
    28    2   26 1  
    29    2   27 1  
    30    4   28 1  
    31    9   29 1  
    32    9   30 1  
    33   10   31 1  
    34   14   32 1  
    35   15   33 1  
    36   15   34 1  
    37   18   35 1  
    38   19   36 1  
    39   20   37 1  
    40   21   38 1  
    41   22   39 1  
@<TRIPOS>SUBSTRUCTURE
     1 KMB         1

