### 
### Created by X-TOOL on Mon Sep 10 21:12:51 2018
### 

@<TRIPOS>MOLECULE
1q6k_ligand
   40    40     1     0     0
SMALL
GAST_HUCK


@<TRIPOS>ATOM
      1 N          74.0060   -9.5770  134.8660 N.am      1 TCO        -0.2422
      2 CA         74.6420  -10.5640  133.9230 C.3       1 TCO         0.1174
      3 C          76.0590  -10.0470  133.4990 C.2       1 TCO         0.1247
      4 O          77.1530  -10.6140  133.6790 O.2       1 TCO        -0.3725
      5 CG2        73.4450  -12.1480  132.2310 C.3       1 TCO        -0.0459
      6 CD2        72.9940  -12.4000  130.7750 C.3       1 TCO        -0.0526
      7 CE         72.2040  -11.2040  130.2010 C.3       1 TCO        -0.0530
      8 CD1        73.0620   -9.9340  130.1850 C.3       1 TCO        -0.0526
      9 CG1        73.9480   -9.7260  131.4440 C.3       1 TCO        -0.0459
     10 CB         73.6970  -10.6950  132.6510 C.3       1 TCO        -0.0019
     11 C1         73.2600   -9.8590  135.9960 C.2       1 TCO         0.3224
     12 O1         73.2230  -10.9600  136.5700 O.2       1 TCO        -0.3774
     13 O2         72.5150   -8.7540  136.4410 O.3       1 TCO        -0.2580
     14 C4         71.2700   -7.1310  137.6900 C.3       1 TCO        -0.0320
     15 C3         71.8710   -8.5670  137.7430 C.3       1 TCO         0.0905
     16 C6         72.9250   -8.5410  138.8700 C.3       1 TCO        -0.0320
     17 C5         70.7390   -9.6040  137.9350 C.3       1 TCO        -0.0320
     18 H1         74.1378   -8.6093  134.6511 H         1 TCO         0.1900
     19 H2         74.7419  -11.5427  134.4151 H         1 TCO         0.0792
     20 H3         76.0907   -9.0847  132.9902 H         1 TCO         0.1373
     21 H4         74.3815  -12.7035  132.3870 H         1 TCO         0.0270
     22 H5         72.6645  -12.5519  132.8926 H         1 TCO         0.0270
     23 H6         72.3531  -13.2937  130.7510 H         1 TCO         0.0265
     24 H7         73.8841  -12.5701  130.1515 H         1 TCO         0.0265
     25 H8         71.3143  -11.0288  130.8236 H         1 TCO         0.0265
     26 H9         71.8916  -11.4397  129.1730 H         1 TCO         0.0265
     27 H10        72.3893   -9.0685  130.0941 H         1 TCO         0.0265
     28 H11        73.7223   -9.9790  129.3064 H         1 TCO         0.0265
     29 H12        73.7829   -8.6989  131.8015 H         1 TCO         0.0270
     30 H13        74.9975   -9.8428  131.1358 H         1 TCO         0.0270
     31 H14        72.7216  -10.3605  133.0340 H         1 TCO         0.0349
     32 H15        70.7631   -6.9104  138.6410 H         1 TCO         0.0260
     33 H16        70.5454   -7.0670  136.8649 H         1 TCO         0.0260
     34 H17        72.0770   -6.4015  137.5268 H         1 TCO         0.0260
     35 H18        72.4228   -8.4000  139.8385 H         1 TCO         0.0260
     36 H19        73.6268   -7.7119  138.6967 H         1 TCO         0.0260
     37 H20        73.4766   -9.4926  138.8782 H         1 TCO         0.0260
     38 H21        70.2649   -9.4518  138.9158 H         1 TCO         0.0260
     39 H22        71.1593  -10.6193  137.8845 H         1 TCO         0.0260
     40 H23        69.9879   -9.4782  137.1413 H         1 TCO         0.0260
@<TRIPOS>BOND
     1    2    1 1  
     2    1   11 am 
     3    1   18 1  
     4    2    3 1  
     5   10    2 1  
     6    2   19 1  
     7    3    4 2  
     8    3   20 1  
     9    5    6 1  
    10    5   10 1  
    11    6    7 1  
    12    7    8 1  
    13    8    9 1  
    14    9   10 1  
    15    5   21 1  
    16   11   12 2  
    17   11   13 1  
    18   13   15 1  
    19   15   14 1  
    20   15   16 1  
    21   15   17 1  
    22    5   22 1  
    23    6   23 1  
    24    6   24 1  
    25    7   25 1  
    26    7   26 1  
    27    8   27 1  
    28    8   28 1  
    29    9   29 1  
    30    9   30 1  
    31   10   31 1  
    32   14   32 1  
    33   14   33 1  
    34   14   34 1  
    35   16   35 1  
    36   16   36 1  
    37   16   37 1  
    38   17   38 1  
    39   17   39 1  
    40   17   40 1  
@<TRIPOS>SUBSTRUCTURE
     1 TCO         1

