### 
### Created by X-TOOL on Mon Sep 10 21:12:50 2018
### 

@<TRIPOS>MOLECULE
1q72_ligand
   44    46     1     0     0
SMALL
GAST_HUCK


@<TRIPOS>ATOM
      1 C1         26.3810   -4.0800   26.7430 C.3       1 COC         0.0658
      2 O5         25.5390   -2.9110   26.5920 O.3       1 COC        -0.2797
      3 C6         24.2900   -3.0860   26.1160 C.2       1 COC         0.2449
      4 O7         23.6110   -4.0370   26.3700 O.2       1 COC        -0.3698
      5 C8         23.9380   -1.8880   25.2240 C.3       1 COC         0.1329
      6 C10        22.5220   -1.3510   25.6380 C.3       1 COC         0.0033
      7 N12        21.5380   -2.4100   25.3550 N.4       1 COC         0.2395
      8 C14        20.2770   -2.2520   26.1220 C.3       1 COC        -0.0424
      9 C18        22.0760   -0.0980   24.8530 C.3       1 COC        -0.0019
     10 C21        21.2930   -0.6930   23.6530 C.3       1 COC        -0.0043
     11 C24        21.3600   -2.2180   23.9070 C.3       1 COC        -0.0176
     12 C26        22.5960   -2.8680   23.2080 C.3       1 COC         0.0237
     13 C29        23.9070   -2.2180   23.6970 C.3       1 COC         0.1176
     14 O1         25.0570   -3.0600   23.3510 O.3       1 COC        -0.2709
     15 C2         26.2790   -2.4850   23.2340 C.2       1 COC         0.2636
     16 O3         26.4940   -1.3160   23.4500 O.2       1 COC        -0.3568
     17 C4         27.3340   -3.4750   22.7920 C.ar      1 COC         0.0620
     18 C5         28.6940   -3.1000   22.9020 C.ar      1 COC        -0.0406
     19 C7         29.6990   -4.0100   22.4880 C.ar      1 COC        -0.0559
     20 C9         29.3650   -5.2450   21.9850 C.ar      1 COC        -0.0573
     21 C11        28.0320   -5.6150   21.8770 C.ar      1 COC        -0.0559
     22 C13        27.0100   -4.7280   22.2830 C.ar      1 COC        -0.0406
     23 H1         27.3616   -3.7769   27.1386 H         1 COC         0.0577
     24 H2         26.5143   -4.5648   25.7646 H         1 COC         0.0577
     25 H3         25.9066   -4.7860   27.4405 H         1 COC         0.0577
     26 H4         24.6894   -1.1024   25.3920 H         1 COC         0.0640
     27 H5         22.5306   -1.1166   26.7127 H         1 COC         0.0882
     28 H6         21.9208   -3.3210   25.5539 H         1 COC         0.2038
     29 H7         19.5876   -3.0703   25.8668 H         1 COC         0.0778
     30 H8         19.8118   -1.2881   25.8682 H         1 COC         0.0778
     31 H9         20.4971   -2.2806   27.1994 H         1 COC         0.0778
     32 H10        22.9449    0.4820   24.5086 H         1 COC         0.0323
     33 H11        21.4277    0.5431   25.4683 H         1 COC         0.0323
     34 H12        21.7741   -0.4307   22.6992 H         1 COC         0.0322
     35 H13        20.2513   -0.3396   23.6477 H         1 COC         0.0322
     36 H14        20.4341   -2.6980   23.5573 H         1 COC         0.0852
     37 H15        22.5090   -2.7299   22.1202 H         1 COC         0.0350
     38 H16        22.6179   -3.9429   23.4406 H         1 COC         0.0350
     39 H17        24.0120   -1.2647   23.1583 H         1 COC         0.0681
     40 H18        28.9643   -2.1279   23.2983 H         1 COC         0.0672
     41 H19        30.7428   -3.7288   22.5690 H         1 COC         0.0630
     42 H20        30.1441   -5.9308   21.6723 H         1 COC         0.0654
     43 H21        27.7735   -6.5896   21.4791 H         1 COC         0.0630
     44 H22        25.9709   -5.0248   22.1976 H         1 COC         0.0672
@<TRIPOS>BOND
     1    1    2 1  
     2    2    3 1  
     3    3    4 2  
     4    3    5 1  
     5    5    6 1  
     6    5   13 1  
     7    6    7 1  
     8    6    9 1  
     9    7    8 1  
    10    7   11 1  
    11    9   10 1  
    12   10   11 1  
    13   11   12 1  
    14   12   13 1  
    15   13   14 1  
    16   14   15 1  
    17   15   16 2  
    18   15   17 1  
    19   17   18 ar 
    20   17   22 ar 
    21   18   19 ar 
    22   19   20 ar 
    23   20   21 ar 
    24   21   22 ar 
    25    1   23 1  
    26    1   24 1  
    27    1   25 1  
    28    5   26 1  
    29    6   27 1  
    30    7   28 1  
    31    8   29 1  
    32    8   30 1  
    33    8   31 1  
    34    9   32 1  
    35    9   33 1  
    36   10   34 1  
    37   10   35 1  
    38   11   36 1  
    39   12   37 1  
    40   12   38 1  
    41   13   39 1  
    42   18   40 1  
    43   19   41 1  
    44   20   42 1  
    45   21   43 1  
    46   22   44 1  
@<TRIPOS>SUBSTRUCTURE
     1 COC         1

