### 
### Created by X-TOOL on Mon Sep 10 21:12:51 2018
### 

@<TRIPOS>MOLECULE
1q7a_ligand
   44    46     1     0     0
SMALL
GAST_HUCK


@<TRIPOS>ATOM
      1 C16        12.0290   22.7760   -8.7010 C.ar      1 OPB        -0.0754
      2 C17        10.7170   22.6250   -8.1400 C.ar      1 OPB        -0.0382
      3 C12        10.1590   23.6150   -7.2150 C.ar      1 OPB         0.1022
      4 C13        11.0120   24.7560   -6.8900 C.ar      1 OPB        -0.0382
      5 C14        12.3330   24.8850   -7.4690 C.ar      1 OPB        -0.0754
      6 C15        12.8280   23.8920   -8.3770 C.ar      1 OPB        -0.0772
      7 C8          6.9580   21.6090  -10.7710 C.ar      1 OPB        -0.0460
      8 C9          7.0670   22.6470  -11.7060 C.ar      1 OPB         0.0724
      9 C10         7.3280   24.0030  -11.2650 C.ar      1 OPB        -0.0460
     10 C11         7.4810   24.2870   -9.8310 C.ar      1 OPB        -0.0460
     11 C6          7.3620   23.1740   -8.8640 C.ar      1 OPB         0.0919
     12 C7          7.1040   21.8690   -9.3850 C.ar      1 OPB        -0.0460
     13 C21         4.9540   18.6190   -3.8330 C.3       1 OPB        -0.0653
     14 C20         5.9210   19.7110   -4.1290 C.3       1 OPB        -0.0556
     15 C19         5.5000   21.1760   -3.8360 C.3       1 OPB        -0.0489
     16 C18         6.7770   21.9110   -4.2980 C.3       1 OPB        -0.0151
     17 N2          8.7340   23.4540   -6.6320 N.am      1 OPB        -0.0862
     18 C3          8.4140   23.4390   -5.2890 C.2       1 OPB         0.2560
     19 C4          6.8900   23.2400   -5.0820 C.3       1 OPB         0.1533
     20 C5          6.4440   23.1600   -6.4950 C.2       1 OPB         0.2533
     21 N1          7.4960   23.2740   -7.3630 N.am      1 OPB        -0.0905
     22 O3          9.2060   23.5660   -4.3110 O.2       1 OPB        -0.3784
     23 O5          5.2420   23.0070   -6.7880 O.2       1 OPB        -0.3798
     24 O9          6.9260   22.3540  -13.0260 O.3       1 OPB        -0.3428
     25 H1         12.4104   22.0236   -9.3817 H         1 OPB         0.0577
     26 H2         10.1243   21.7575   -8.4069 H         1 OPB         0.0503
     27 H3         10.6511   25.5160   -6.2064 H         1 OPB         0.0503
     28 H4         12.9516   25.7379   -7.2143 H         1 OPB         0.0577
     29 H5         13.8144   23.9988   -8.8136 H         1 OPB         0.0487
     30 H6          6.7604   20.5986  -11.1103 H         1 OPB         0.0507
     31 H7          7.4100   24.8046  -11.9901 H         1 OPB         0.0507
     32 H8          7.6779   25.2961   -9.4875 H         1 OPB         0.0479
     33 H9          7.0160   21.0415   -8.6903 H         1 OPB         0.0479
     34 H10         5.4036   17.6500   -4.0955 H         1 OPB         0.0230
     35 H11         4.0382   18.7702   -4.4233 H         1 OPB         0.0230
     36 H12         4.7056   18.6296   -2.7615 H         1 OPB         0.0230
     37 H13         6.1601   19.6506   -5.2010 H         1 OPB         0.0263
     38 H14         6.8275   19.5101   -3.5392 H         1 OPB         0.0263
     39 H15         5.2984   21.3381   -2.7669 H         1 OPB         0.0268
     40 H16         4.6200   21.4747   -4.4245 H         1 OPB         0.0268
     41 H17         7.3088   21.1766   -4.9207 H         1 OPB         0.0316
     42 H18         7.3450   22.0868   -3.3726 H         1 OPB         0.0316
     43 H19         6.3985   24.0623   -4.5414 H         1 OPB         0.0786
     44 H20         6.7609   21.4239  -13.1269 H         1 OPB         0.2432
@<TRIPOS>BOND
     1    2    1 ar 
     2    1    6 ar 
     3    3    2 ar 
     4    3    4 ar 
     5   17    3 1  
     6    4    5 ar 
     7    5    6 ar 
     8    7    8 ar 
     9   12    7 ar 
    10    9    8 ar 
    11    8   24 1  
    12   10    9 ar 
    13   11   10 ar 
    14   11   12 ar 
    15   21   11 1  
    16   14   13 1  
    17   15   14 1  
    18   16   15 1  
    19   19   16 1  
    20   18   17 am 
    21   17   21 1  
    22   18   19 1  
    23   18   22 2  
    24   19   20 1  
    25   20   21 am 
    26   20   23 2  
    27    1   25 1  
    28    2   26 1  
    29    4   27 1  
    30    5   28 1  
    31    6   29 1  
    32    7   30 1  
    33    9   31 1  
    34   10   32 1  
    35   12   33 1  
    36   13   34 1  
    37   13   35 1  
    38   13   36 1  
    39   14   37 1  
    40   14   38 1  
    41   15   39 1  
    42   15   40 1  
    43   16   41 1  
    44   16   42 1  
    45   19   43 1  
    46   24   44 1  
@<TRIPOS>SUBSTRUCTURE
     1 OPB         1

