### 
### Created by X-TOOL on Mon Sep 10 21:12:51 2018
### 

@<TRIPOS>MOLECULE
1q83_ligand
   95   102     1     0     0
SMALL
GAST_HUCK


@<TRIPOS>ATOM
      1 N2         38.9010   20.9180   11.4650 N.pl3     1 TZ5        -0.3098
      2 C8         39.1050   22.2690   11.2770 C.ar      1 TZ5         0.0861
      3 C7         40.2920   22.9460   11.6000 C.ar      1 TZ5         0.0015
      4 C6         40.4080   24.2850   11.3790 C.ar      1 TZ5        -0.0178
      5 C5         39.3830   25.1300   10.7970 C.ar      1 TZ5         0.0421
      6 C19        38.0960   23.0700   10.7510 C.ar      1 TZ5         0.0074
      7 C18        38.1150   24.4880   10.5410 C.ar      1 TZ5         0.0525
      8 N3         37.1640   25.1420    9.7080 N.ar      1 TZ5        -0.3457
      9 C11        37.4200   26.2990    9.0340 C.ar      1 TZ5         0.0662
     10 C12        36.3970   26.9140    8.1160 C.ar      1 TZ5         0.0197
     11 C13        35.5300   27.9320    8.5560 C.ar      1 TZ5        -0.0393
     12 C14        34.5990   28.5070    7.6820 C.ar      1 TZ5        -0.0505
     13 C15        34.5100   28.0660    6.3530 C.ar      1 TZ5        -0.0518
     14 C16        35.3570   27.0520    5.8830 C.ar      1 TZ5        -0.0505
     15 C17        36.2810   26.4960    6.7660 C.ar      1 TZ5        -0.0393
     16 C10        38.6980   26.9340    9.1710 C.ar      1 TZ5         0.0550
     17 C9         38.9430   28.2670    8.6300 C.ar      1 TZ5         0.0294
     18 C4         39.6940   26.3720   10.0720 C.ar      1 TZ5         0.0430
     19 C3         40.8030   27.2530   10.3770 C.ar      1 TZ5        -0.0155
     20 C2         40.9740   28.5160    9.8550 C.ar      1 TZ5         0.0089
     21 C1         40.0270   29.0850    8.9430 C.ar      1 TZ5         0.1071
     22 N1         40.1590   30.3490    8.3960 N.pl3     1 TZ5        -0.3022
     23 C20        35.8120   24.5110    9.5120 C.3       1 TZ5         0.0073
     24 C21        35.6220   23.5010    8.3590 C.3       1 TZ5        -0.0407
     25 C22        34.1670   23.0050    8.1460 C.3       1 TZ5        -0.0519
     26 C23        33.4440   22.7850    9.4740 C.3       1 TZ5        -0.0509
     27 C24        32.1100   22.0620    9.3630 C.3       1 TZ5        -0.0395
     28 C25        31.3560   22.3370   10.6500 C.3       1 TZ5         0.0117
     29 C26        31.1550   21.2470   11.6500 C.2       1 TZ5         0.0901
     30 N4         31.1690   21.1640   12.9950 N.pl3     1 TZ5        -0.1694
     31 N5         30.8620   19.9550   13.4210 N.2       1 TZ5        -0.1095
     32 N6         30.6140   19.1340   12.4430 N.2       1 TZ5        -0.2428
     33 C27        30.7900   19.9420   11.4160 C.2       1 TZ5         0.0180
     34 C28        31.4670   22.2890   13.8610 C.3       1 TZ5         0.0969
     35 C29        30.2140   23.1250   14.1090 C.3       1 TZ5         0.0571
     36 N7         29.3190   22.4800   15.0820 N.pl3     1 TZ5        -0.3114
     37 C30        28.0830   22.0010   14.6850 C.ar      1 TZ5         0.0690
     38 C31        27.1280   22.7250   13.9170 C.ar      1 TZ5         0.0197
     39 C32        27.2380   24.1160   13.5150 C.ar      1 TZ5        -0.0528
     40 C33        25.9150   22.0810   13.5640 C.ar      1 TZ5         0.0179
     41 C34        24.9380   22.8280   12.8140 C.ar      1 TZ5        -0.0521
     42 C35        25.1060   24.1260   12.4510 C.ar      1 TZ5        -0.0640
     43 C36        26.2980   24.7910   12.8130 C.ar      1 TZ5        -0.0632
     44 N8         25.6220   20.8320   13.9560 N.ar      1 TZ5        -0.3281
     45 C37        26.5130   20.1200   14.6760 C.ar      1 TZ5         0.0105
     46 C38        26.1340   18.8120   15.1710 C.3       1 TZ5        -0.0081
     47 C39        27.7540   20.6860   15.1080 C.ar      1 TZ5         0.0054
     48 C40        28.4560   19.8840   16.0930 C.3       1 TZ5        -0.0210
     49 C41        28.0000   18.6590   16.5150 C.3       1 TZ5        -0.0439
     50 C42        27.0180   17.9550   15.7610 C.3       1 TZ5        -0.0400
     51 H1         39.6536   20.3329   11.8550 H         1 TZ5         0.1952
     52 H2         37.9960   20.4942   11.2154 H         1 TZ5         0.1952
     53 H3         41.1233   22.3982   12.0290 H         1 TZ5         0.0753
     54 H4         41.3421   24.7573   11.6610 H         1 TZ5         0.0767
     55 H5         37.1837   22.5591   10.4650 H         1 TZ5         0.0635
     56 H6         35.5836   28.2747    9.5830 H         1 TZ5         0.0702
     57 H7         33.9443   29.2961    8.0338 H         1 TZ5         0.0647
     58 H8         33.7818   28.5120    5.6852 H         1 TZ5         0.0701
     59 H9         35.2945   26.7086    4.8567 H         1 TZ5         0.0647
     60 H10        36.9376   25.7122    6.4061 H         1 TZ5         0.0702
     61 H11        38.2186   28.6548    7.9229 H         1 TZ5         0.0930
     62 H12        41.5551   26.8907   11.0684 H         1 TZ5         0.0871
     63 H13        41.8458   29.0932   10.1410 H         1 TZ5         0.0703
     64 H14        39.4450   30.7055    7.7448 H         1 TZ5         0.2004
     65 H15        40.9712   30.9335    8.6400 H         1 TZ5         0.2004
     66 H16        35.0946   25.3284    9.3471 H         1 TZ5         0.0418
     67 H17        35.5617   23.9863   10.4458 H         1 TZ5         0.0418
     68 H18        36.2529   22.6244    8.5675 H         1 TZ5         0.0276
     69 H19        35.9573   23.9810    7.4278 H         1 TZ5         0.0276
     70 H20        34.1919   22.0549    7.5922 H         1 TZ5         0.0266
     71 H21        33.6165   23.7563    7.5608 H         1 TZ5         0.0266
     72 H22        33.2628   23.7686    9.9319 H         1 TZ5         0.0267
     73 H23        34.1011   22.1919   10.1271 H         1 TZ5         0.0267
     74 H24        32.2737   20.9809    9.2433 H         1 TZ5         0.0290
     75 H25        31.5421   22.4444    8.5020 H         1 TZ5         0.0290
     76 H26        30.3551   22.6902   10.3613 H         1 TZ5         0.0472
     77 H27        31.8951   23.1449   11.1664 H         1 TZ5         0.0472
     78 H28        30.6485   19.5814   10.3982 H         1 TZ5         0.0436
     79 H29        32.2328   22.9187   13.3846 H         1 TZ5         0.0665
     80 H30        31.8470   21.9138   14.8227 H         1 TZ5         0.0665
     81 H31        29.6756   23.2527   13.1583 H         1 TZ5         0.0550
     82 H32        30.5126   24.1102   14.4966 H         1 TZ5         0.0550
     83 H33        29.6140   22.3844   16.0642 H         1 TZ5         0.1816
     84 H34        28.1370   24.6520   13.7972 H         1 TZ5         0.0636
     85 H35        24.0208   22.3281   12.5242 H         1 TZ5         0.0590
     86 H36        24.3358   24.6442   11.8912 H         1 TZ5         0.0621
     87 H37        26.4577   25.8260   12.5330 H         1 TZ5         0.0585
     88 H38        25.7171   18.2709   14.3088 H         1 TZ5         0.0453
     89 H39        25.3407   18.9869   15.9127 H         1 TZ5         0.0453
     90 H40        28.5315   20.5080   16.9957 H         1 TZ5         0.0386
     91 H41        29.4616   19.7095   15.6827 H         1 TZ5         0.0386
     92 H42        27.5784   18.8086   17.5199 H         1 TZ5         0.0284
     93 H43        28.8789   18.0008   16.5803 H         1 TZ5         0.0284
     94 H44        27.5210   17.3660   14.9800 H         1 TZ5         0.0292
     95 H45        26.4677   17.2795   16.4325 H         1 TZ5         0.0292
@<TRIPOS>BOND
     1    1    2 1  
     2    2    3 ar 
     3    2    6 ar 
     4    3    4 ar 
     5    4    5 ar 
     6    5    7 ar 
     7    5   18 ar 
     8    6    7 ar 
     9    7    8 ar 
    10    8    9 ar 
    11    8   23 1  
    12    9   10 1  
    13    9   16 ar 
    14   10   11 ar 
    15   10   15 ar 
    16   11   12 ar 
    17   12   13 ar 
    18   13   14 ar 
    19   14   15 ar 
    20   16   17 ar 
    21   16   18 ar 
    22   17   21 ar 
    23   18   19 ar 
    24   19   20 ar 
    25   20   21 ar 
    26   21   22 1  
    27   23   24 1  
    28   24   25 1  
    29   25   26 1  
    30   26   27 1  
    31   27   28 1  
    32   28   29 1  
    33   29   30 1  
    34   29   33 2  
    35   30   31 1  
    36   30   34 1  
    37   31   32 2  
    38   32   33 1  
    39   34   35 1  
    40   35   36 1  
    41   36   37 1  
    42   37   38 ar 
    43   37   47 ar 
    44   38   39 ar 
    45   38   40 ar 
    46   39   43 ar 
    47   40   41 ar 
    48   40   44 ar 
    49   41   42 ar 
    50   42   43 ar 
    51   44   45 ar 
    52   45   46 1  
    53   45   47 ar 
    54   46   50 1  
    55   47   48 1  
    56   48   49 1  
    57   49   50 1  
    58    1   51 1  
    59    1   52 1  
    60    3   53 1  
    61    4   54 1  
    62    6   55 1  
    63   11   56 1  
    64   12   57 1  
    65   13   58 1  
    66   14   59 1  
    67   15   60 1  
    68   17   61 1  
    69   19   62 1  
    70   20   63 1  
    71   22   64 1  
    72   22   65 1  
    73   23   66 1  
    74   23   67 1  
    75   24   68 1  
    76   24   69 1  
    77   25   70 1  
    78   25   71 1  
    79   26   72 1  
    80   26   73 1  
    81   27   74 1  
    82   27   75 1  
    83   28   76 1  
    84   28   77 1  
    85   33   78 1  
    86   34   79 1  
    87   34   80 1  
    88   35   81 1  
    89   35   82 1  
    90   36   83 1  
    91   39   84 1  
    92   41   85 1  
    93   42   86 1  
    94   43   87 1  
    95   46   88 1  
    96   46   89 1  
    97   48   90 1  
    98   48   91 1  
    99   49   92 1  
   100   49   93 1  
   101   50   94 1  
   102   50   95 1  
@<TRIPOS>SUBSTRUCTURE
     1 TZ5         1

