### 
### Created by X-TOOL on Mon Sep 10 21:12:51 2018
### 

@<TRIPOS>MOLECULE
1q84_ligand
   95   102     1     0     0
SMALL
GAST_HUCK


@<TRIPOS>ATOM
      1 N3         41.0100   28.3000    9.8790 N.pl3     1 TZ4        -0.3022
      2 C19        40.7450   27.4150    8.8530 C.ar      1 TZ4         0.1071
      3 C18        41.7090   27.0880    7.8540 C.ar      1 TZ4         0.0089
      4 C17        41.4360   26.1960    6.8240 C.ar      1 TZ4        -0.0155
      5 C16        40.1850   25.5070    6.6570 C.ar      1 TZ4         0.0430
      6 C14        39.1970   25.8280    7.6580 C.ar      1 TZ4         0.0550
      7 C15        39.5220   26.7700    8.7120 C.ar      1 TZ4         0.0294
      8 C7         37.8860   25.3020    7.5300 C.ar      1 TZ4         0.0662
      9 C8         36.8630   25.5830    8.5900 C.ar      1 TZ4         0.0197
     10 C9         36.6780   24.5480    9.5190 C.ar      1 TZ4        -0.0393
     11 C10        35.7530   24.6770   10.5520 C.ar      1 TZ4        -0.0505
     12 C11        34.9890   25.8470   10.6990 C.ar      1 TZ4        -0.0518
     13 C12        35.1590   26.8940    9.7900 C.ar      1 TZ4        -0.0505
     14 C13        36.0910   26.7560    8.7510 C.ar      1 TZ4        -0.0393
     15 C4         39.8350   24.6260    5.5490 C.ar      1 TZ4         0.0421
     16 C3         40.7770   24.0550    4.6060 C.ar      1 TZ4        -0.0178
     17 C2         40.4560   23.0740    3.6750 C.ar      1 TZ4         0.0015
     18 C1         39.1320   22.5340    3.5940 C.ar      1 TZ4         0.0861
     19 N1         38.7670   21.5500    2.6940 N.pl3     1 TZ4        -0.3098
     20 C6         38.4930   24.0940    5.4670 C.ar      1 TZ4         0.0525
     21 C5         38.2160   23.0620    4.5090 C.ar      1 TZ4         0.0074
     22 N2         37.6000   24.4750    6.4880 N.ar      1 TZ4        -0.3457
     23 C20        36.1960   23.9670    6.3970 C.3       1 TZ4         0.0073
     24 C21        35.7670   22.6510    7.0580 C.3       1 TZ4        -0.0407
     25 C22        34.3720   22.3330    6.4880 C.3       1 TZ4        -0.0519
     26 C23        33.7740   21.0610    7.0670 C.3       1 TZ4        -0.0517
     27 C24        33.3450   21.3520    8.4960 C.3       1 TZ4        -0.0462
     28 C25        31.9350   21.9420    8.5240 C.3       1 TZ4        -0.0185
     29 C26        31.6020   21.9110    9.9500 C.2       1 TZ4         0.0370
     30 N4         31.3130   20.7860   10.5820 N.2       1 TZ4        -0.2265
     31 N5         31.1120   21.1290   11.8520 N.2       1 TZ4        -0.1019
     32 N6         31.2740   22.4310   12.0060 N.pl3     1 TZ4        -0.1793
     33 C27        31.6010   22.9330   10.8220 C.2       1 TZ4         0.0694
     34 C28        31.1690   23.2930   13.1720 C.3       1 TZ4         0.0954
     35 C29        30.5720   22.4520   14.2940 C.3       1 TZ4         0.0573
     36 N7         29.1730   22.8000   14.3780 N.pl3     1 TZ4        -0.3113
     37 C30        28.1000   22.0120   14.1050 C.ar      1 TZ4         0.0690
     38 C31        27.1030   22.7150   13.3460 C.ar      1 TZ4         0.0197
     39 C32        27.2450   24.0460   12.7980 C.ar      1 TZ4        -0.0528
     40 C33        25.8880   22.0440   13.0610 C.ar      1 TZ4         0.0179
     41 C34        24.8700   22.7570   12.3570 C.ar      1 TZ4        -0.0521
     42 C35        25.0400   24.0110   11.8770 C.ar      1 TZ4        -0.0640
     43 C36        26.2540   24.6720   12.1200 C.ar      1 TZ4        -0.0632
     44 N8         25.6840   20.7520   13.4110 N.ar      1 TZ4        -0.3281
     45 C37        26.6110   20.0820   14.1120 C.ar      1 TZ4         0.0105
     46 C38        26.2900   18.7460   14.5800 C.3       1 TZ4        -0.0081
     47 C39        27.8510   20.6960   14.5230 C.ar      1 TZ4         0.0054
     48 C40        28.6250   19.9090   15.4460 C.3       1 TZ4        -0.0210
     49 C41        28.2180   18.6670   15.8570 C.3       1 TZ4        -0.0439
     50 C42        27.2880   17.9330   15.0680 C.3       1 TZ4        -0.0400
     51 H1         41.9324   28.7541    9.9421 H         1 TZ4         0.2004
     52 H2         40.2853   28.5062   10.5813 H         1 TZ4         0.2004
     53 H3         42.6880   27.5511    7.8998 H         1 TZ4         0.0703
     54 H4         42.2184   26.0070    6.0979 H         1 TZ4         0.0871
     55 H5         38.7533   26.9872    9.4448 H         1 TZ4         0.0930
     56 H6         37.2612   23.6384    9.4318 H         1 TZ4         0.0702
     57 H7         35.6203   23.8617   11.2539 H         1 TZ4         0.0647
     58 H8         34.2749   25.9363   11.5096 H         1 TZ4         0.0701
     59 H9         34.5769   27.8033    9.8866 H         1 TZ4         0.0647
     60 H10        36.2231   27.5730    8.0509 H         1 TZ4         0.0702
     61 H11        41.7986   24.4169    4.6286 H         1 TZ4         0.0767
     62 H12        41.2213   22.7113    2.9983 H         1 TZ4         0.0753
     63 H13        37.7990   21.1983    2.6800 H         1 TZ4         0.1952
     64 H14        39.4631   21.1687    2.0375 H         1 TZ4         0.1952
     65 H15        37.2106   22.6572    4.4934 H         1 TZ4         0.0635
     66 H16        35.9754   23.8600    5.3247 H         1 TZ4         0.0418
     67 H17        35.5555   24.7513    6.8267 H         1 TZ4         0.0418
     68 H18        35.7170   22.7691    8.1505 H         1 TZ4         0.0276
     69 H19        36.4755   21.8476    6.8081 H         1 TZ4         0.0276
     70 H20        34.4563   22.2167    5.3974 H         1 TZ4         0.0266
     71 H21        33.6994   23.1729    6.7163 H         1 TZ4         0.0266
     72 H22        34.5256   20.2579    7.0591 H         1 TZ4         0.0266
     73 H23        32.9023   20.7533    6.4709 H         1 TZ4         0.0266
     74 H24        34.0466   22.0704    8.9451 H         1 TZ4         0.0281
     75 H25        33.3572   20.4167    9.0749 H         1 TZ4         0.0281
     76 H26        31.2355   21.3261    7.9398 H         1 TZ4         0.0380
     77 H27        31.9280   22.9717    8.1373 H         1 TZ4         0.0380
     78 H28        31.8258   23.9751   10.5995 H         1 TZ4         0.0898
     79 H29        30.5140   24.1488   12.9516 H         1 TZ4         0.0668
     80 H30        32.1649   23.6587   13.4627 H         1 TZ4         0.0668
     81 H31        31.0759   22.6775   15.2454 H         1 TZ4         0.0550
     82 H32        30.6828   21.3818   14.0650 H         1 TZ4         0.0550
     83 H33        28.9630   23.7616   14.6815 H         1 TZ4         0.1816
     84 H34        28.1864   24.5654   12.9362 H         1 TZ4         0.0636
     85 H35        23.9145   22.2699   12.1995 H         1 TZ4         0.0590
     86 H36        24.2513   24.4969   11.3140 H         1 TZ4         0.0621
     87 H37        26.3986   25.6857   11.7642 H         1 TZ4         0.0585
     88 H38        25.8313   18.2138   13.7336 H         1 TZ4         0.0453
     89 H39        25.5500   18.8602   15.3858 H         1 TZ4         0.0453
     90 H40        28.7294   20.5164   16.3571 H         1 TZ4         0.0386
     91 H41        29.6126   19.7718   14.9816 H         1 TZ4         0.0386
     92 H42        27.7638   18.7928   16.8509 H         1 TZ4         0.0284
     93 H43        29.1226   18.0471   15.9430 H         1 TZ4         0.0284
     94 H44        27.8207   17.4736   14.2223 H         1 TZ4         0.0292
     95 H45        26.8361   17.1450   15.6884 H         1 TZ4         0.0292
@<TRIPOS>BOND
     1    1    2 1  
     2    2    3 ar 
     3    2    7 ar 
     4    3    4 ar 
     5    4    5 ar 
     6    5    6 ar 
     7    5   15 ar 
     8    6    7 ar 
     9    6    8 ar 
    10    8    9 1  
    11    8   22 ar 
    12    9   10 ar 
    13    9   14 ar 
    14   10   11 ar 
    15   11   12 ar 
    16   12   13 ar 
    17   13   14 ar 
    18   15   16 ar 
    19   15   20 ar 
    20   16   17 ar 
    21   17   18 ar 
    22   18   19 1  
    23   18   21 ar 
    24   20   21 ar 
    25   20   22 ar 
    26   22   23 1  
    27   23   24 1  
    28   24   25 1  
    29   25   26 1  
    30   26   27 1  
    31   27   28 1  
    32   28   29 1  
    33   29   30 1  
    34   29   33 2  
    35   30   31 2  
    36   31   32 1  
    37   32   33 1  
    38   32   34 1  
    39   34   35 1  
    40   35   36 1  
    41   36   37 1  
    42   37   38 ar 
    43   37   47 ar 
    44   38   39 ar 
    45   38   40 ar 
    46   39   43 ar 
    47   40   41 ar 
    48   40   44 ar 
    49   41   42 ar 
    50   42   43 ar 
    51   44   45 ar 
    52   45   46 1  
    53   45   47 ar 
    54   46   50 1  
    55   47   48 1  
    56   48   49 1  
    57   49   50 1  
    58    1   51 1  
    59    1   52 1  
    60    3   53 1  
    61    4   54 1  
    62    7   55 1  
    63   10   56 1  
    64   11   57 1  
    65   12   58 1  
    66   13   59 1  
    67   14   60 1  
    68   16   61 1  
    69   17   62 1  
    70   19   63 1  
    71   19   64 1  
    72   21   65 1  
    73   23   66 1  
    74   23   67 1  
    75   24   68 1  
    76   24   69 1  
    77   25   70 1  
    78   25   71 1  
    79   26   72 1  
    80   26   73 1  
    81   27   74 1  
    82   27   75 1  
    83   28   76 1  
    84   28   77 1  
    85   33   78 1  
    86   34   79 1  
    87   34   80 1  
    88   35   81 1  
    89   35   82 1  
    90   36   83 1  
    91   39   84 1  
    92   41   85 1  
    93   42   86 1  
    94   43   87 1  
    95   46   88 1  
    96   46   89 1  
    97   48   90 1  
    98   48   91 1  
    99   49   92 1  
   100   49   93 1  
   101   50   94 1  
   102   50   95 1  
@<TRIPOS>SUBSTRUCTURE
     1 TZ4         1

