### 
### Created by X-TOOL on Mon Sep 10 21:12:50 2018
### 

@<TRIPOS>MOLECULE
1q8t_ligand
   40    41     1     0     0
SMALL
GAST_HUCK


@<TRIPOS>ATOM
      1 O23         7.5670    9.6490    1.6590 O.2       1 Y27        -0.3826
      2 C22         7.9850    9.4820    2.8080 C.2       1 Y27         0.2105
      3 C31         9.3900    9.0330    3.1220 C.3       1 Y27         0.0554
      4 C36         9.8020    7.9260    2.1470 C.3       1 Y27        -0.0322
      5 C35        11.1770    7.3720    2.5330 C.3       1 Y27        -0.0428
      6 C34        12.1910    8.5000    2.3070 C.3       1 Y27         0.0020
      7 C33        11.8850    9.6720    3.2770 C.3       1 Y27        -0.0428
      8 C32        10.4100   10.1890    3.1380 C.3       1 Y27        -0.0322
      9 C41        13.6350    7.9160    2.3770 C.3       1 Y27        -0.0244
     10 C42        14.0090    7.2340    1.0480 C.3       1 Y27        -0.0215
     11 N43        14.6510    8.9840    2.6880 N.4       1 Y27         0.2207
     12 N21         7.1750    9.6680    3.9630 N.am      1 Y27        -0.2247
     13 C14         5.7350    9.7420    4.0100 C.ar      1 Y27         0.0867
     14 C15         5.1650    9.6930    5.2930 C.ar      1 Y27        -0.0140
     15 C16         3.7700    9.7460    5.3480 C.ar      1 Y27        -0.0065
     16 N11         3.0100    9.8540    4.2380 N.ar      1 Y27        -0.3199
     17 C12         3.5410    9.9010    3.0060 C.ar      1 Y27        -0.0065
     18 C13         4.9180    9.8440    2.8470 C.ar      1 Y27        -0.0140
     19 H1          9.3790    8.6009    4.1335 H         1 Y27         0.0544
     20 H2          9.8481    8.3370    1.1277 H         1 Y27         0.0293
     21 H3          9.0597    7.1150    2.1821 H         1 Y27         0.0293
     22 H4         11.4270    6.5066    1.9017 H         1 Y27         0.0271
     23 H5         11.1791    7.0677    3.5900 H         1 Y27         0.0271
     24 H6         12.0522    8.8865    1.2866 H         1 Y27         0.0355
     25 H7         12.5730   10.5018    3.0577 H         1 Y27         0.0271
     26 H8         12.0434    9.3274    4.3096 H         1 Y27         0.0271
     27 H9         10.1841   10.8498    3.9879 H         1 Y27         0.0293
     28 H10        10.3195   10.7551    2.1992 H         1 Y27         0.0293
     29 H11        13.6630    7.1639    3.1792 H         1 Y27         0.0850
     30 H12        15.0295    6.8294    1.1180 H         1 Y27         0.0284
     31 H13        13.9617    7.9702    0.2320 H         1 Y27         0.0284
     32 H14        13.3031    6.4153    0.8446 H         1 Y27         0.0284
     33 H15        14.4104    9.4336    3.5575 H         1 Y27         0.1997
     34 H16        14.6577    9.6674    1.9471 H         1 Y27         0.1997
     35 H17        15.5646    8.5657    2.7676 H         1 Y27         0.1997
     36 H18         7.6553    9.7569    4.8356 H         1 Y27         0.2307
     37 H19         5.7720    9.6184    6.1880 H         1 Y27         0.0596
     38 H20         3.2817    9.6988    6.3146 H         1 Y27         0.0771
     39 H21         2.8962    9.9832    2.1385 H         1 Y27         0.0771
     40 H22         5.3629    9.8764    1.8591 H         1 Y27         0.0596
@<TRIPOS>BOND
     1    1    2 2  
     2    2    3 1  
     3    2   12 am 
     4    3    4 1  
     5    3    8 1  
     6    4    5 1  
     7    5    6 1  
     8    6    7 1  
     9    6    9 1  
    10    7    8 1  
    11    9   10 1  
    12    9   11 1  
    13   12   13 1  
    14   13   14 ar 
    15   13   18 ar 
    16   14   15 ar 
    17   15   16 ar 
    18   16   17 ar 
    19   17   18 ar 
    20    3   19 1  
    21    4   20 1  
    22    4   21 1  
    23    5   22 1  
    24    5   23 1  
    25    6   24 1  
    26    7   25 1  
    27    7   26 1  
    28    8   27 1  
    29    8   28 1  
    30    9   29 1  
    31   10   30 1  
    32   10   31 1  
    33   10   32 1  
    34   11   33 1  
    35   11   34 1  
    36   11   35 1  
    37   12   36 1  
    38   14   37 1  
    39   15   38 1  
    40   17   39 1  
    41   18   40 1  
@<TRIPOS>SUBSTRUCTURE
     1 Y27         1

