### 
### Created by X-TOOL on Mon Sep 10 21:12:50 2018
### 

@<TRIPOS>MOLECULE
1q8w_ligand
   38    40     1     0     0
SMALL
GAST_HUCK


@<TRIPOS>ATOM
      1 O1         26.9940   26.9540    9.2830 O.2       1 M77        -0.1499
      2 S1         27.1860   25.7920    8.4080 S.o2      1 M77         0.0730
      3 O2         27.9860   26.0500    7.2280 O.2       1 M77        -0.1499
      4 N4         27.9080   24.6030    9.2490 N.am      1 M77        -0.2286
      5 C22        27.4130   24.2840   10.6350 C.3       1 M77         0.0695
      6 C21        28.4790   24.0170   11.7230 C.3       1 M77        -0.0162
      7 N17        29.7220   24.8500   11.4750 N.4       1 M77         0.2282
      8 C16        30.6460   24.1750   10.4640 C.3       1 M77        -0.0321
      9 C20        30.3290   24.5740    9.0120 C.3       1 M77         0.0045
     10 C15        29.0210   23.8900    8.5770 C.3       1 M77         0.0347
     11 C5         25.7240   24.8810    7.9650 C.ar      1 M77         0.1236
     12 C6         25.7800   23.4940    7.8520 C.ar      1 M77        -0.0287
     13 C7         24.6130   22.7330    7.5170 C.ar      1 M77        -0.0534
     14 C8         23.3990   23.3610    7.3210 C.ar      1 M77        -0.0451
     15 C9         23.3330   24.7720    7.4130 C.ar      1 M77         0.0110
     16 C10        24.4820   25.5390    7.7340 C.ar      1 M77         0.0243
     17 C11        24.3120   26.9510    7.8040 C.ar      1 M77        -0.0294
     18 C14        22.1280   25.4500    7.1710 C.ar      1 M77         0.0199
     19 N13        21.9990   26.7680    7.2870 N.ar      1 M77        -0.2974
     20 C12        23.0920   27.5280    7.5800 C.ar      1 M77         0.0077
     21 H1         26.7823   23.3857   10.5624 H         1 M77         0.0531
     22 H2         26.8023   25.1345   10.9720 H         1 M77         0.0531
     23 H3         28.7504   22.9511   11.7082 H         1 M77         0.0830
     24 H4         28.0621   24.2756   12.7075 H         1 M77         0.0830
     25 H5         30.2172   24.9688   12.3449 H         1 M77         0.2014
     26 H6         29.4477   25.7521   11.1186 H         1 M77         0.2014
     27 H7         30.5375   23.0847   10.5611 H         1 M77         0.0814
     28 H8         31.6838   24.4618   10.6893 H         1 M77         0.0814
     29 H9         31.1496   24.2523    8.3539 H         1 M77         0.0333
     30 H10        30.2132   25.6659    8.9468 H         1 M77         0.0333
     31 H11        28.9062   23.9565    7.4850 H         1 M77         0.0480
     32 H12        29.0294   22.8329    8.8812 H         1 M77         0.0480
     33 H13        26.7208   22.9824    8.0200 H         1 M77         0.0675
     34 H14        24.6838   21.6560    7.4167 H         1 M77         0.0645
     35 H15        22.5096   22.7820    7.0999 H         1 M77         0.0659
     36 H16        25.1636   27.5793    8.0387 H         1 M77         0.0716
     37 H17        21.2607   24.8709    6.8752 H         1 M77         0.0870
     38 H18        22.9930   28.6060    7.6364 H         1 M77         0.0775
@<TRIPOS>BOND
     1    1    2 2  
     2    2    3 2  
     3    2    4 am 
     4    2   11 1  
     5    4    5 1  
     6    4   10 1  
     7    5    6 1  
     8    6    7 1  
     9    7    8 1  
    10    8    9 1  
    11    9   10 1  
    12   11   12 ar 
    13   11   16 ar 
    14   12   13 ar 
    15   13   14 ar 
    16   14   15 ar 
    17   15   16 ar 
    18   15   18 ar 
    19   16   17 ar 
    20   17   20 ar 
    21   18   19 ar 
    22   19   20 ar 
    23    5   21 1  
    24    5   22 1  
    25    6   23 1  
    26    6   24 1  
    27    7   25 1  
    28    7   26 1  
    29    8   27 1  
    30    8   28 1  
    31    9   29 1  
    32    9   30 1  
    33   10   31 1  
    34   10   32 1  
    35   12   33 1  
    36   13   34 1  
    37   14   35 1  
    38   17   36 1  
    39   18   37 1  
    40   20   38 1  
@<TRIPOS>SUBSTRUCTURE
     1 M77         1

