### 
### Created by X-TOOL on Mon Sep 10 21:12:50 2018
### 

@<TRIPOS>MOLECULE
1q9d_ligand
   75    79     1     0     0
SMALL
GAST_HUCK


@<TRIPOS>ATOM
      1 O1         45.4720   74.5560   22.4890 O.3       1 OI1        -0.3376
      2 C1         44.8790   75.5310   21.6990 C.ar      1 OI1         0.0805
      3 C2         44.4870   76.7430   22.2660 C.ar      1 OI1        -0.0398
      4 C3         43.8980   77.7090   21.4760 C.ar      1 OI1        -0.0685
      5 C4         43.6800   77.5020   20.1130 C.ar      1 OI1        -0.0492
      6 C5         44.0780   76.2880   19.5600 C.ar      1 OI1        -0.0685
      7 C6         44.6760   75.3020   20.3400 C.ar      1 OI1        -0.0398
      8 C7         43.1380   78.6090   19.2410 C.3       1 OI1         0.0167
      9 C8         41.6980   78.3420   18.9180 C.3       1 OI1         0.1447
     10 C9         41.5770   77.1660   17.8900 C.2       1 OI1         0.2104
     11 O2         42.0290   77.2820   16.7390 O.2       1 OI1        -0.3938
     12 N1         40.9680   75.9240   18.2660 N.am      1 OI1        -0.2377
     13 C10        40.4390   75.6900   19.6430 C.3       1 OI1         0.1444
     14 C11        40.2810   76.9960   20.4380 C.2       1 OI1         0.2111
     15 O3         39.6060   76.9450   21.4660 O.2       1 OI1        -0.3938
     16 N2         40.9380   78.2180   20.0830 N.am      1 OI1        -0.2263
     17 C12        40.7730   79.4250   20.9360 C.3       1 OI1         0.1363
     18 C13        41.4310   79.1910   22.3710 C.2       1 OI1         0.2022
     19 O4         42.3440   79.9450   22.6760 O.2       1 OI1        -0.3945
     20 N3         41.0270   78.2210   23.1890 N.am      1 OI1        -0.2833
     21 C14        41.6650   78.0190   24.4890 C.3       1 OI1         0.0390
     22 C15        40.6110   77.9750   25.5880 C.3       1 OI1        -0.0040
     23 C16        39.6600   79.1470   25.5390 C.ar      1 OI1        -0.0518
     24 C17        40.0560   80.4020   26.0110 C.ar      1 OI1        -0.0687
     25 C18        39.2360   81.5140   25.8950 C.ar      1 OI1        -0.0398
     26 C19        37.9970   81.3900   25.3070 C.ar      1 OI1         0.0805
     27 O5         37.1980   82.5040   25.2220 O.3       1 OI1        -0.3376
     28 C20        37.5640   80.1570   24.8160 C.ar      1 OI1        -0.0398
     29 C21        38.4010   79.0330   24.9370 C.ar      1 OI1        -0.0687
     30 C22        39.2090   79.7280   21.0520 C.3       1 OI1        -0.0123
     31 C23        38.9360   81.1500   21.3290 C.3       1 OI1        -0.0517
     32 C24        37.4520   81.4930   21.2890 C.3       1 OI1        -0.0651
     33 C25        41.2460   74.5520   20.3280 C.3       1 OI1         0.0194
     34 C26        41.6810   73.4710   19.3340 C.ar      1 OI1        -0.0346
     35 C27        42.2690   72.3090   19.8520 C.ar      1 OI1        -0.0666
     36 C28        42.6930   71.2730   18.9850 C.ar      1 OI1        -0.0755
     37 C29        42.5410   71.4000   17.5860 C.ar      1 OI1        -0.0754
     38 C30        41.9430   72.5710   17.0400 C.ar      1 OI1        -0.0649
     39 C31        41.5100   73.6090   17.9110 C.ar      1 OI1        -0.0184
     40 C32        40.8740   74.8580   17.3260 C.3       1 OI1         0.0681
     41 H1         45.6770   73.7981   21.9542 H         1 OI1         0.2458
     42 H2         44.6443   76.9256   23.3229 H         1 OI1         0.0525
     43 H3         43.5980   78.6494   21.9239 H         1 OI1         0.0530
     44 H4         43.9194   76.1072   18.5030 H         1 OI1         0.0530
     45 H5         44.9814   74.3629   19.8930 H         1 OI1         0.0525
     46 H6         43.7188   78.6566   18.3080 H         1 OI1         0.0453
     47 H7         43.2210   79.5677   19.7740 H         1 OI1         0.0453
     48 H8         41.3141   79.2348   18.4027 H         1 OI1         0.0825
     49 H9         39.4174   75.2999   19.5238 H         1 OI1         0.0825
     50 H10        41.2716   80.2805   20.4569 H         1 OI1         0.0804
     51 H11        40.2764   77.6220   22.9101 H         1 OI1         0.1853
     52 H12        42.3610   78.8478   24.6854 H         1 OI1         0.0540
     53 H13        42.2195   77.0691   24.4785 H         1 OI1         0.0540
     54 H14        41.1204   77.9772   26.5629 H         1 OI1         0.0425
     55 H15        40.0301   77.0472   25.4799 H         1 OI1         0.0425
     56 H16        41.0279   80.5083   26.4791 H         1 OI1         0.0530
     57 H17        39.5688   82.4768   26.2656 H         1 OI1         0.0525
     58 H18        37.0210   82.8328   26.0955 H         1 OI1         0.2458
     59 H19        36.5915   80.0666   24.3457 H         1 OI1         0.0525
     60 H20        38.0690   78.0718   24.5616 H         1 OI1         0.0530
     61 H21        38.7903   79.1214   21.8685 H         1 OI1         0.0312
     62 H22        38.7235   79.4523   20.1042 H         1 OI1         0.0312
     63 H23        39.4565   81.7595   20.5757 H         1 OI1         0.0265
     64 H24        39.3244   81.3926   22.3291 H         1 OI1         0.0265
     65 H25        37.3172   82.5636   21.5029 H         1 OI1         0.0230
     66 H26        36.9177   80.8981   22.0444 H         1 OI1         0.0230
     67 H27        37.0497   81.2651   20.2909 H         1 OI1         0.0230
     68 H28        40.6171   74.0885   21.1024 H         1 OI1         0.0459
     69 H29        42.1428   74.9853   20.7948 H         1 OI1         0.0459
     70 H30        42.4000   72.2028   20.9228 H         1 OI1         0.0537
     71 H31        43.1379   70.3749   19.3980 H         1 OI1         0.0541
     72 H32        42.8793   70.6068   16.9292 H         1 OI1         0.0541
     73 H33        41.8185   72.6709   15.9678 H         1 OI1         0.0538
     74 H34        41.3991   75.1377   16.4008 H         1 OI1         0.0673
     75 H35        39.8156   74.6596   17.1014 H         1 OI1         0.0673
@<TRIPOS>BOND
     1    1    2 1  
     2    2    3 ar 
     3    2    7 ar 
     4    3    4 ar 
     5    4    5 ar 
     6    5    6 ar 
     7    5    8 1  
     8    6    7 ar 
     9    8    9 1  
    10    9   10 1  
    11    9   16 1  
    12   10   11 2  
    13   10   12 am 
    14   12   13 1  
    15   12   40 1  
    16   13   14 1  
    17   13   33 1  
    18   14   15 2  
    19   14   16 am 
    20   16   17 1  
    21   17   18 1  
    22   17   30 1  
    23   18   19 2  
    24   18   20 am 
    25   20   21 1  
    26   21   22 1  
    27   22   23 1  
    28   23   24 ar 
    29   23   29 ar 
    30   24   25 ar 
    31   25   26 ar 
    32   26   27 1  
    33   26   28 ar 
    34   28   29 ar 
    35   30   31 1  
    36   31   32 1  
    37   33   34 1  
    38   34   35 ar 
    39   34   39 ar 
    40   35   36 ar 
    41   36   37 ar 
    42   37   38 ar 
    43   38   39 ar 
    44   39   40 1  
    45    1   41 1  
    46    3   42 1  
    47    4   43 1  
    48    6   44 1  
    49    7   45 1  
    50    8   46 1  
    51    8   47 1  
    52    9   48 1  
    53   13   49 1  
    54   17   50 1  
    55   20   51 1  
    56   21   52 1  
    57   21   53 1  
    58   22   54 1  
    59   22   55 1  
    60   24   56 1  
    61   25   57 1  
    62   27   58 1  
    63   28   59 1  
    64   29   60 1  
    65   30   61 1  
    66   30   62 1  
    67   31   63 1  
    68   31   64 1  
    69   32   65 1  
    70   32   66 1  
    71   32   67 1  
    72   33   68 1  
    73   33   69 1  
    74   35   70 1  
    75   36   71 1  
    76   37   72 1  
    77   38   73 1  
    78   40   74 1  
    79   40   75 1  
@<TRIPOS>SUBSTRUCTURE
     1 OI1         1

