### 
### Created by X-TOOL on Mon Sep 10 21:12:50 2018
### 

@<TRIPOS>MOLECULE
1q9m_ligand
   41    43     1     0     0
SMALL
GAST_HUCK


@<TRIPOS>ATOM
      1 C5         21.2990   -2.8180   30.9530 C.ar      1 ROL        -0.0554
      2 C6         21.5640   -4.0410   31.5900 C.ar      1 ROL        -0.0393
      3 C7         21.8630   -4.0770   32.9630 C.ar      1 ROL         0.1139
      4 C8         21.8910   -2.9020   33.6920 C.ar      1 ROL         0.1122
      5 C9         21.6310   -1.6860   33.0560 C.ar      1 ROL        -0.0479
      6 C10        21.3410   -1.6540   31.6960 C.ar      1 ROL        -0.0796
      7 C3         20.9030   -2.7440   29.5030 C.3       1 ROL         0.0221
      8 C2         21.3560   -4.0000   28.7650 C.3       1 ROL         0.0499
      9 C1         20.1770   -4.8200   28.4000 C.2       1 ROL         0.1782
     10 O1         20.1950   -5.9360   27.9030 O.2       1 ROL        -0.3969
     11 N1         19.1120   -4.1240   28.7500 N.am      1 ROL        -0.2847
     12 C4         19.3520   -2.8330   29.3920 C.3       1 ROL         0.0437
     13 O3         22.1350   -5.2500   33.6380 O.3       1 ROL        -0.3201
     14 C11        21.9570   -6.4230   32.8320 C.3       1 ROL         0.0787
     15 C15        21.0770   -7.4060   33.5940 C.3       1 ROL        -0.0226
     16 C14        21.8990   -8.5680   34.0920 C.3       1 ROL        -0.0503
     17 C13        23.3220   -8.3570   33.6020 C.3       1 ROL        -0.0503
     18 C12        23.3140   -7.1040   32.7520 C.3       1 ROL        -0.0226
     19 O2         22.1320   -2.9990   35.0530 O.3       1 ROL        -0.3294
     20 C16        23.0780   -2.0460   35.5180 C.3       1 ROL         0.0554
     21 H1         21.5378   -4.9625   31.0197 H         1 ROL         0.0450
     22 H2         21.6553   -0.7634   33.6246 H         1 ROL         0.0493
     23 H3         21.1454   -0.7035   31.2129 H         1 ROL         0.0436
     24 H4         21.3007   -1.8291   29.0395 H         1 ROL         0.0483
     25 H5         22.0212   -4.5863   29.4160 H         1 ROL         0.0526
     26 H6         21.8973   -3.7119   27.8518 H         1 ROL         0.0526
     27 H7         18.1860   -4.4632   28.5841 H         1 ROL         0.1852
     28 H8         18.9572   -2.0116   28.7760 H         1 ROL         0.0544
     29 H9         18.8870   -2.8004   30.3884 H         1 ROL         0.0544
     30 H10        21.5467   -6.1797   31.8408 H         1 ROL         0.0645
     31 H11        20.2878   -7.7802   32.9253 H         1 ROL         0.0294
     32 H12        20.6179   -6.8925   34.4516 H         1 ROL         0.0294
     33 H13        21.4989   -9.5112   33.6917 H         1 ROL         0.0266
     34 H14        21.8801   -8.5989   35.1914 H         1 ROL         0.0266
     35 H15        23.6469   -9.2193   33.0013 H         1 ROL         0.0266
     36 H16        24.0015   -8.2292   34.4575 H         1 ROL         0.0266
     37 H17        24.0890   -6.4134   33.1159 H         1 ROL         0.0294
     38 H18        23.5243   -7.3731   31.7064 H         1 ROL         0.0294
     39 H19        23.2253   -2.1738   36.6006 H         1 ROL         0.0570
     40 H20        22.7055   -1.0309   35.3160 H         1 ROL         0.0570
     41 H21        24.0354   -2.1956   34.9975 H         1 ROL         0.0570
@<TRIPOS>BOND
     1    1    2 ar 
     2    1    6 ar 
     3    1    7 1  
     4    2    3 ar 
     5    3    4 ar 
     6    3   13 1  
     7    4    5 ar 
     8    4   19 1  
     9    5    6 ar 
    10    7    8 1  
    11    7   12 1  
    12    8    9 1  
    13    9   10 2  
    14    9   11 am 
    15   11   12 1  
    16   13   14 1  
    17   14   15 1  
    18   14   18 1  
    19   15   16 1  
    20   16   17 1  
    21   17   18 1  
    22   19   20 1  
    23    2   21 1  
    24    5   22 1  
    25    6   23 1  
    26    7   24 1  
    27    8   25 1  
    28    8   26 1  
    29   11   27 1  
    30   12   28 1  
    31   12   29 1  
    32   14   30 1  
    33   15   31 1  
    34   15   32 1  
    35   16   33 1  
    36   16   34 1  
    37   17   35 1  
    38   17   36 1  
    39   18   37 1  
    40   18   38 1  
    41   20   39 1  
    42   20   40 1  
    43   20   41 1  
@<TRIPOS>SUBSTRUCTURE
     1 ROL         1

