### 
### Created by X-TOOL on Mon Sep 10 21:12:48 2018
### 

@<TRIPOS>MOLECULE
1qan_ligand
   46    48     1     0     0
SMALL
GAST_HUCK


@<TRIPOS>ATOM
      1 N          12.0740   37.0810   22.6250 N.4       1 SAH         0.2327
      2 CA         12.9000   38.1910   22.1850 C.3       1 SAH         0.0291
      3 CB         14.3410   37.8170   21.7690 C.3       1 SAH         0.0114
      4 CG         14.7660   36.3330   21.8170 C.3       1 SAH         0.0005
      5 SD         16.5060   36.0930   21.2720 S.3       1 SAH        -0.1578
      6 C          12.3300   38.9740   20.9810 C.2       1 SAH         0.0844
      7 O          12.0590   38.3160   19.9330 O.co2     1 SAH        -0.5643
      8 OXT        12.1820   40.2360   21.1140 O.co2     1 SAH        -0.5643
      9 C5'        17.3250   35.3590   22.7440 C.3       1 SAH         0.0226
     10 C4'        17.1900   36.1740   24.0520 C.3       1 SAH         0.0995
     11 O4'        17.4970   35.3820   25.2130 O.3       1 SAH        -0.3383
     12 C3'        18.0460   37.4530   24.1750 C.3       1 SAH         0.1132
     13 O3'        17.3440   38.5690   24.6940 O.3       1 SAH        -0.3864
     14 C2'        19.2330   36.9560   24.9680 C.3       1 SAH         0.1385
     15 O2'        19.8650   37.9860   25.7150 O.3       1 SAH        -0.3836
     16 C1'        18.5400   36.0040   25.9740 C.3       1 SAH         0.2009
     17 N9         19.4110   34.9330   26.5080 N.pl3     1 SAH        -0.1919
     18 C8         20.4170   34.2340   25.9390 C.2       1 SAH         0.1123
     19 N7         20.9900   33.3320   26.7510 N.2       1 SAH        -0.2958
     20 C5         20.3060   33.4260   27.9560 C.ar      1 SAH         0.1045
     21 C6         20.3540   32.8200   29.2090 C.ar      1 SAH         0.1298
     22 N6         21.2690   31.8490   29.4890 N.pl3     1 SAH        -0.3152
     23 N1         19.4820   33.1840   30.2110 N.ar      1 SAH        -0.2698
     24 C2         18.5680   34.1590   29.9730 C.ar      1 SAH         0.0533
     25 N3         18.4470   34.7980   28.7730 N.ar      1 SAH        -0.2714
     26 C4         19.3230   34.4390   27.8010 C.ar      1 SAH         0.1613
     27 H1         12.5136   36.6253   23.4093 H         1 SAH         0.2010
     28 H2         11.9672   36.4217   21.8700 H         1 SAH         0.2010
     29 H3         11.1678   37.4253   22.9012 H         1 SAH         0.2010
     30 H4         12.9637   38.8800   23.0401 H         1 SAH         0.1024
     31 H5         15.0230   38.3705   22.4312 H         1 SAH         0.0347
     32 H6         14.4779   38.1594   20.7327 H         1 SAH         0.0347
     33 H7         14.1045   35.7531   21.1566 H         1 SAH         0.0379
     34 H8         14.6645   35.9683   22.8498 H         1 SAH         0.0379
     35 H9         18.3965   35.2530   22.5190 H         1 SAH         0.0402
     36 H10        16.8864   34.3651   22.9164 H         1 SAH         0.0402
     37 H11        16.1354   36.4806   24.1125 H         1 SAH         0.0632
     38 H12        18.3952   37.7498   23.1750 H         1 SAH         0.0647
     39 H13        17.0040   38.3554   25.5550 H         1 SAH         0.2100
     40 H14        19.9643   36.4414   24.3275 H         1 SAH         0.0676
     41 H15        19.2117   38.4560   26.2198 H         1 SAH         0.2101
     42 H16        18.1280   36.5847   26.8125 H         1 SAH         0.0996
     43 H17        20.7359   34.3891   24.9093 H         1 SAH         0.1349
     44 H18        21.2882   31.4131   30.4220 H         1 SAH         0.1820
     45 H19        21.9411   31.5513   28.7675 H         1 SAH         0.1820
     46 H20        17.8999   34.4448   30.7773 H         1 SAH         0.0996
@<TRIPOS>BOND
     1    2    1 1  
     2    2    6 1  
     3    2    3 1  
     4    3    4 1  
     5    4    5 1  
     6    5    9 1  
     7    9   10 1  
     8   10   12 1  
     9   10   11 1  
    10   11   16 1  
    11   16   17 1  
    12   16   14 1  
    13   14   15 1  
    14   14   12 1  
    15   12   13 1  
    16   17   26 1  
    17   17   18 1  
    18   18   19 2  
    19   19   20 1  
    20   20   26 ar 
    21   20   21 ar 
    22   21   23 ar 
    23   21   22 1  
    24   23   24 ar 
    25   24   25 ar 
    26   25   26 ar 
    27    6    8 ar 
    28    6    7 ar 
    29    1   27 1  
    30    1   28 1  
    31    1   29 1  
    32    2   30 1  
    33    3   31 1  
    34    3   32 1  
    35    4   33 1  
    36    4   34 1  
    37    9   35 1  
    38    9   36 1  
    39   10   37 1  
    40   12   38 1  
    41   13   39 1  
    42   14   40 1  
    43   15   41 1  
    44   16   42 1  
    45   18   43 1  
    46   22   44 1  
    47   22   45 1  
    48   24   46 1  
@<TRIPOS>SUBSTRUCTURE
     1 SAH         1

