### 
### Created by X-TOOL on Mon Sep 10 21:12:48 2018
### 

@<TRIPOS>MOLECULE
1qaq_ligand
   51    53     1     0     0
SMALL
GAST_HUCK


@<TRIPOS>ATOM
      1 N          12.1110   36.9810   22.6730 N.4       1 SFG         0.2327
      2 CA         13.0760   37.6830   21.8340 C.3       1 SFG         0.0285
      3 C          12.5140   37.4720   20.4390 C.2       1 SFG         0.0844
      4 O          12.1870   38.4400   19.7820 O.co2     1 SFG        -0.5643
      5 OXT        12.4100   36.3410   19.9940 O.co2     1 SFG        -0.5643
      6 CB         14.5510   37.2050   21.9730 C.3       1 SFG         0.0075
      7 CG         14.7890   35.7010   21.6950 C.3       1 SFG        -0.0030
      8 CD         16.2600   35.3190   21.4260 C.3       1 SFG        -0.0216
      9 NE         16.3560   34.3510   20.3450 N.4       1 SFG         0.2208
     10 C5         17.0300   34.7280   22.6350 C.3       1 SFG         0.0191
     11 C4         16.9900   35.5940   23.9090 C.3       1 SFG         0.0957
     12 O4         17.3120   34.8440   25.0610 O.3       1 SFG        -0.3389
     13 C3         17.9390   36.7900   23.8840 C.3       1 SFG         0.1126
     14 O3         17.3230   37.9760   24.4190 O.3       1 SFG        -0.3865
     15 C2         19.0850   36.3570   24.7890 C.3       1 SFG         0.1384
     16 O2         19.6350   37.4930   25.4650 O.3       1 SFG        -0.3836
     17 C1         18.3690   35.4470   25.7770 C.3       1 SFG         0.2009
     18 N9         19.2690   34.4050   26.3280 N.pl3     1 SFG        -0.1919
     19 C8         20.2890   33.7290   25.7320 C.2       1 SFG         0.1123
     20 N7         20.9130   32.8310   26.5310 N.2       1 SFG        -0.2958
     21 C5         20.2390   32.9270   27.7310 C.ar      1 SFG         0.1045
     22 C6         20.3470   32.3090   28.9550 C.ar      1 SFG         0.1298
     23 N6         21.2880   31.3770   29.1540 N.pl3     1 SFG        -0.3152
     24 N1         19.5340   32.5960   30.0050 N.ar      1 SFG        -0.2698
     25 C2         18.5710   33.5490   29.8160 C.ar      1 SFG         0.0533
     26 N3         18.3780   34.2110   28.6580 N.ar      1 SFG        -0.2714
     27 C4         19.2110   33.9080   27.6150 C.ar      1 SFG         0.1613
     28 H1         12.3885   37.0561   23.6391 H         1 SFG         0.2010
     29 H2         12.0789   36.0092   22.4072 H         1 SFG         0.2010
     30 H3         11.1988   37.3927   22.5525 H         1 SFG         0.2010
     31 H4         13.0576   38.7545   22.0820 H         1 SFG         0.1024
     32 H5         14.8813   37.4168   23.0006 H         1 SFG         0.0340
     33 H6         15.1633   37.7823   21.2647 H         1 SFG         0.0340
     34 H7         14.1949   35.4174   20.8138 H         1 SFG         0.0323
     35 H8         14.4419   35.1318   22.5700 H         1 SFG         0.0323
     36 H9         16.7781   36.2395   21.1190 H         1 SFG         0.0851
     37 H10        17.3239   34.1175   20.1881 H         1 SFG         0.1997
     38 H11        15.9652   34.7464   19.5042 H         1 SFG         0.1997
     39 H12        15.8455   33.5181   20.5934 H         1 SFG         0.1997
     40 H13        18.0822   34.5989   22.3413 H         1 SFG         0.0346
     41 H14        16.5928   33.7472   22.8735 H         1 SFG         0.0346
     42 H15        15.9628   35.9737   24.0118 H         1 SFG         0.0626
     43 H16        18.2915   36.9869   22.8608 H         1 SFG         0.0647
     44 H17        17.0655   37.8189   25.3198 H         1 SFG         0.2100
     45 H18        19.8716   35.8249   24.2339 H         1 SFG         0.0676
     46 H19        18.9597   37.9043   25.9916 H         1 SFG         0.2101
     47 H20        17.9681   36.0463   26.6077 H         1 SFG         0.0996
     48 H21        20.5799   33.8967   24.6961 H         1 SFG         0.1349
     49 H22        21.3688   30.9143   30.0706 H         1 SFG         0.1820
     50 H23        21.9309   31.1230   28.3904 H         1 SFG         0.1820
     51 H24        17.9217   33.7869   30.6508 H         1 SFG         0.0996
@<TRIPOS>BOND
     1    1    2 1  
     2    2    3 1  
     3    2    6 1  
     4    3    4 ar 
     5    3    5 ar 
     6    6    7 1  
     7    7    8 1  
     8    8    9 1  
     9    8   10 1  
    10   10   11 1  
    11   11   12 1  
    12   11   13 1  
    13   12   17 1  
    14   13   14 1  
    15   13   15 1  
    16   15   16 1  
    17   15   17 1  
    18   17   18 1  
    19   18   19 1  
    20   18   27 1  
    21   19   20 2  
    22   20   21 1  
    23   21   22 ar 
    24   21   27 ar 
    25   22   23 1  
    26   22   24 ar 
    27   24   25 ar 
    28   25   26 ar 
    29   26   27 ar 
    30    1   28 1  
    31    1   29 1  
    32    1   30 1  
    33    2   31 1  
    34    6   32 1  
    35    6   33 1  
    36    7   34 1  
    37    7   35 1  
    38    8   36 1  
    39    9   37 1  
    40    9   38 1  
    41    9   39 1  
    42   10   40 1  
    43   10   41 1  
    44   11   42 1  
    45   13   43 1  
    46   14   44 1  
    47   15   45 1  
    48   16   46 1  
    49   17   47 1  
    50   19   48 1  
    51   23   49 1  
    52   23   50 1  
    53   25   51 1  
@<TRIPOS>SUBSTRUCTURE
     1 SFG         1

