### 
### Created by X-TOOL on Mon Sep 10 21:12:47 2018
### 

@<TRIPOS>MOLECULE
1qaw_ligand
   27    28     1     0     0
SMALL
GAST_HUCK


@<TRIPOS>ATOM
      1 N          18.8700   62.9900   33.5200 N.4       1 TRP         0.2336
      2 CA         18.0540   61.8970   32.9690 C.3       1 TRP         0.0324
      3 C          18.6300   61.2890   31.6440 C.2       1 TRP         0.0858
      4 O          18.9510   62.0290   30.6470 O.co2     1 TRP        -0.5642
      5 CB         16.5960   62.4040   32.8280 C.3       1 TRP         0.0190
      6 CG         15.7190   61.2120   32.5080 C.2       1 TRP        -0.0392
      7 CD1        15.2960   60.8500   31.2560 C.2       1 TRP         0.0167
      8 CD2        15.1820   60.2210   33.3890 C.ar      1 TRP        -0.0213
      9 NE1        14.5300   59.7140   31.3070 N.pl3     1 TRP        -0.2890
     10 CE2        14.4700   59.2920   32.6070 C.ar      1 TRP         0.0603
     11 CE3        15.2460   60.0100   34.7750 C.ar      1 TRP        -0.0747
     12 CZ2        13.8060   58.1920   33.1670 C.ar      1 TRP        -0.0443
     13 CZ3        14.5980   58.9040   35.3170 C.ar      1 TRP        -0.0792
     14 CH2        13.8850   58.0100   34.5060 C.ar      1 TRP        -0.0768
     15 OXT        19.1420   60.1410   31.7730 O.co2     1 TRP        -0.5642
     16 H1         18.4444   63.3330   34.3670 H         1 TRP         0.2011
     17 H2         18.9286   63.7379   32.8468 H         1 TRP         0.2011
     18 H3         19.7960   62.6481   33.7239 H         1 TRP         0.2011
     19 H4         18.0508   61.0832   33.7090 H         1 TRP         0.1040
     20 H5         16.5339   63.1428   32.0154 H         1 TRP         0.0423
     21 H6         16.2683   62.8670   33.7704 H         1 TRP         0.0423
     22 H7         15.5361   61.3921   30.3426 H         1 TRP         0.0795
     23 H8         14.0768   59.2562   30.5033 H         1 TRP         0.2216
     24 H9         15.7909   60.6968   35.4125 H         1 TRP         0.0540
     25 H10        13.2441   57.5052   32.5443 H         1 TRP         0.0541
     26 H11        14.6455   58.7306   36.3860 H         1 TRP         0.0510
     27 H12        13.3888   57.1591   34.9586 H         1 TRP         0.0530
@<TRIPOS>BOND
     1    2    1 1  
     2    2    5 1  
     3    2    3 1  
     4    3    4 ar 
     5    3   15 ar 
     6    5    6 1  
     7    6    7 2  
     8    6    8 1  
     9    8   11 ar 
    10    8   10 ar 
    11   10   12 ar 
    12   10    9 1  
    13    9    7 1  
    14   12   14 ar 
    15   14   13 ar 
    16   13   11 ar 
    17    1   16 1  
    18    1   17 1  
    19    1   18 1  
    20    2   19 1  
    21    5   20 1  
    22    5   21 1  
    23    7   22 1  
    24    9   23 1  
    25   11   24 1  
    26   12   25 1  
    27   13   26 1  
    28   14   27 1  
@<TRIPOS>SUBSTRUCTURE
     1 TRP         1

