### 
### Created by X-TOOL on Mon Sep 10 21:12:47 2018
### 

@<TRIPOS>MOLECULE
1qb1_ligand
   67    71     1     0     0
SMALL
GAST_HUCK


@<TRIPOS>ATOM
      1 O1         11.7250   36.6150   12.0780 O.3       1 974        -0.2519
      2 C11        12.5520   36.1640   11.0990 C.ar      1 974         0.1460
      3 C12        12.0470   35.9790    9.7920 C.ar      1 974        -0.0312
      4 C13        12.8580   35.5610    8.7300 C.ar      1 974         0.0068
      5 C14        14.2070   35.2710    8.9650 C.ar      1 974        -0.0759
      6 C15        14.7550   35.4300   10.2390 C.ar      1 974        -0.0405
      7 C16        13.9470   35.8860   11.3090 C.ar      1 974         0.1214
      8 O11        14.5420   36.0350   12.5290 O.3       1 974        -0.3359
      9 C17        12.2060   35.3880    7.4950 C.cat     1 974         0.2271
     10 N11        10.9110   35.6540    7.2960 N.pl3     1 974        -0.2735
     11 N12        12.7900   34.9120    6.4050 N.pl3     1 974        -0.2735
     12 C1         10.9220   37.7630   13.9970 C.ar      1 974         0.1929
     13 C2         10.8680   39.0180   14.6700 C.ar      1 974         0.1125
     14 C3         11.5260   40.1160   14.0860 C.ar      1 974         0.1933
     15 C4         12.2030   39.9420   12.8720 C.ar      1 974         0.1950
     16 N5         12.2390   38.7440   12.2520 N.ar      1 974        -0.2653
     17 C6         11.6170   37.6720   12.7970 C.ar      1 974         0.1924
     18 N31        10.1960   39.1620   15.8440 N.pl3     1 974        -0.3034
     19 C32        10.2260   38.0680   16.8050 C.3       1 974         0.0416
     20 C33        10.4450   38.6550   18.2360 C.3       1 974         0.0316
     21 C34         9.2830   39.6700   18.5530 C.3       1 974        -0.0350
     22 C35         9.3240   40.8200   17.4830 C.3       1 974        -0.0313
     23 C36         9.2500   40.2340   16.0490 C.3       1 974         0.0276
     24 C37        10.5980   37.6510   19.3160 C.2       1 974         0.0398
     25 O31         9.5750   37.3810   20.0060 O.co2     1 974        -0.5687
     26 O32        11.7120   37.4510   19.8750 O.co2     1 974        -0.5687
     27 O2         12.8780   40.8850   12.2280 O.3       1 974        -0.2484
     28 C21        12.5560   42.1160   11.8290 C.ar      1 974         0.1187
     29 C22        11.2740   42.3630   11.3400 C.ar      1 974        -0.0271
     30 C23        10.9360   43.6620   10.9170 C.ar      1 974        -0.0675
     31 C24        11.9030   44.6820   10.9950 C.ar      1 974        -0.0590
     32 C25        13.1980   44.4240   11.4880 C.ar      1 974         0.0178
     33 C26        13.5220   43.1330   11.9250 C.ar      1 974        -0.0158
     34 C27        14.1370   45.4670   11.6050 C.2       1 974         0.1355
     35 N21        14.5570   46.3530   10.6670 N.pl3     1 974        -0.2506
     36 C30        14.1670   46.4610    9.2820 C.3       1 974         0.0466
     37 N22        14.7450   45.7120   12.7870 N.2       1 974        -0.3246
     38 C28        15.4900   47.2540   11.2460 C.2       1 974         0.0388
     39 C29        15.6150   46.8110   12.7190 C.2       1 974        -0.0197
     40 F1         10.3100   36.7200   14.5010 F         1 974        -0.1999
     41 F2         11.5090   41.2760   14.6870 F         1 974        -0.1999
     42 H1         10.9959   36.1672    9.6054 H         1 974         0.0520
     43 H2         14.8312   34.9201    8.1512 H         1 974         0.0501
     44 H3         15.8013   35.2039   10.4097 H         1 974         0.0511
     45 H4         14.8897   35.1984   12.8148 H         1 974         0.2447
     46 H5         10.4918   35.5062    6.3669 H         1 974         0.3180
     47 H6         10.3325   36.0067    8.0718 H         1 974         0.3180
     48 H7         13.7899   34.6655    6.4223 H         1 974         0.3180
     49 H8         12.2441   34.7885    5.5404 H         1 974         0.3180
     50 H9         11.0496   37.3821   16.5576 H         1 974         0.0536
     51 H10         9.2717   37.5220   16.7724 H         1 974         0.0536
     52 H11        11.3858   39.2243   18.2068 H         1 974         0.0485
     53 H12         9.4232   40.0930   19.5587 H         1 974         0.0287
     54 H13         8.3138   39.1521   18.5048 H         1 974         0.0287
     55 H14        10.2614   41.3847   17.5948 H         1 974         0.0285
     56 H15         8.4690   41.4933   17.6429 H         1 974         0.0285
     57 H16         8.2347   39.8472   15.8772 H         1 974         0.0515
     58 H17         9.4635   41.0366   15.3278 H         1 974         0.0515
     59 H18        10.5449   41.5626   11.2861 H         1 974         0.0563
     60 H19         9.9436   43.8744   10.5360 H         1 974         0.0594
     61 H20        11.6471   45.6840   10.6700 H         1 974         0.0549
     62 H21        14.5042   42.9211   12.3317 H         1 974         0.0565
     63 H22        14.7074   47.2965    8.8130 H         1 974         0.0583
     64 H23        13.0841   46.6434    9.2191 H         1 974         0.0583
     65 H24        14.4123   45.5255    8.7579 H         1 974         0.0583
     66 H25        16.0056   48.0789   10.7564 H         1 974         0.0893
     67 H26        16.2265   47.2438   13.5094 H         1 974         0.0471
@<TRIPOS>BOND
     1    1   17 1  
     2    1    2 1  
     3    2    7 ar 
     4    2    3 ar 
     5    3    4 ar 
     6    4    9 1  
     7    4    5 ar 
     8    5    6 ar 
     9    6    7 ar 
    10    7    8 1  
    11    9   11 ar 
    12    9   10 ar 
    13   17   16 ar 
    14   17   12 ar 
    15   12   13 ar 
    16   13   18 1  
    17   13   14 ar 
    18   14   15 ar 
    19   15   27 1  
    20   15   16 ar 
    21   27   28 1  
    22   28   33 ar 
    23   28   29 ar 
    24   29   30 ar 
    25   30   31 ar 
    26   31   32 ar 
    27   32   34 1  
    28   32   33 ar 
    29   34   37 2  
    30   34   35 1  
    31   35   38 1  
    32   35   36 1  
    33   38   39 2  
    34   39   37 1  
    35   18   23 1  
    36   18   19 1  
    37   19   20 1  
    38   20   24 1  
    39   20   21 1  
    40   21   22 1  
    41   22   23 1  
    42   24   26 ar 
    43   24   25 ar 
    44   14   41 1  
    45   12   40 1  
    46    3   42 1  
    47    5   43 1  
    48    6   44 1  
    49    8   45 1  
    50   10   46 1  
    51   10   47 1  
    52   11   48 1  
    53   11   49 1  
    54   19   50 1  
    55   19   51 1  
    56   20   52 1  
    57   21   53 1  
    58   21   54 1  
    59   22   55 1  
    60   22   56 1  
    61   23   57 1  
    62   23   58 1  
    63   29   59 1  
    64   30   60 1  
    65   31   61 1  
    66   33   62 1  
    67   36   63 1  
    68   36   64 1  
    69   36   65 1  
    70   38   66 1  
    71   39   67 1  
@<TRIPOS>SUBSTRUCTURE
     1 974         1

