### 
### Created by X-TOOL on Mon Sep 10 21:12:47 2018
### 

@<TRIPOS>MOLECULE
1qb6_ligand
   48    50     1     0     0
SMALL
GAST_HUCK


@<TRIPOS>ATOM
      1 C1          8.9010   25.1190   20.0180 C.ar      1 623         0.1787
      2 C2          9.7590   26.2110   19.7440 C.ar      1 623         0.0253
      3 C3         11.0890   25.9250   19.3520 C.ar      1 623         0.1787
      4 C4         11.5310   24.5740   19.2450 C.ar      1 623         0.2012
      5 N5         10.6810   23.5470   19.5070 N.ar      1 623        -0.2559
      6 C6          9.4110   23.8090   19.8800 C.ar      1 623         0.2012
      7 C7          9.2320   27.6020   19.8710 C.3       1 623        -0.0274
      8 O1         12.7750   24.2960   18.8630 O.3       1 623        -0.2463
      9 O2          8.5610   22.7850   20.1740 O.3       1 623        -0.2463
     10 C21         9.0790   21.5800   20.5750 C.ar      1 623         0.1177
     11 C22         8.8030   20.5380   19.6860 C.ar      1 623        -0.0229
     12 C23         9.2670   19.2450   19.9590 C.ar      1 623         0.0182
     13 C24        10.0360   18.9970   21.1150 C.ar      1 623        -0.0669
     14 C25        10.3390   20.0510   22.0110 C.ar      1 623        -0.0695
     15 C26         9.8580   21.3480   21.7070 C.ar      1 623        -0.0282
     16 C27         8.9950   18.2340   19.0120 C.cat     1 623         0.2332
     17 N21         8.2300   18.4260   17.9630 N.pl3     1 623        -0.2723
     18 N22         9.3620   16.9880   19.1360 N.pl3     1 623        -0.2723
     19 C11        13.9450   24.9590   18.7290 C.ar      1 623         0.1177
     20 C12        14.2760   25.8810   19.7320 C.ar      1 623        -0.0282
     21 C13        15.4920   26.5820   19.6820 C.ar      1 623        -0.0695
     22 C14        16.3970   26.3530   18.6330 C.ar      1 623        -0.0669
     23 C15        16.1070   25.4160   17.6080 C.ar      1 623         0.0182
     24 C16        14.8720   24.7250   17.6820 C.ar      1 623        -0.0229
     25 C17        17.0270   25.1780   16.5630 C.cat     1 623         0.2332
     26 N11        18.2080   25.7980   16.4030 N.pl3     1 623        -0.2723
     27 N12        16.7940   24.3050   15.5860 N.pl3     1 623        -0.2723
     28 F1          7.6380   25.2630   20.3870 F         1 623        -0.1958
     29 F3         11.9410   26.8980   19.0900 F         1 623        -0.1958
     30 H1          8.1790   27.5677   20.1871 H         1 623         0.0395
     31 H2          9.3067   28.1125   18.8995 H         1 623         0.0395
     32 H3          9.8219   28.1507   20.6199 H         1 623         0.0395
     33 H4          8.2303   20.7301   18.7859 H         1 623         0.0553
     34 H5         10.3967   17.9952   21.3185 H         1 623         0.0529
     35 H6         10.9235   19.8699   22.9058 H         1 623         0.0591
     36 H7         10.0999   22.1741   22.3659 H         1 623         0.0553
     37 H8          8.0619   17.6556   17.3003 H         1 623         0.3181
     38 H9          7.7978   19.3470   17.8025 H         1 623         0.3181
     39 H10         9.9659   16.7047   19.9208 H         1 623         0.3181
     40 H11         9.0478   16.2878   18.4491 H         1 623         0.3181
     41 H12        13.5884   26.0541   20.5520 H         1 623         0.0553
     42 H13        15.7327   27.3021   20.4557 H         1 623         0.0591
     43 H14        17.3320   26.9008   18.6060 H         1 623         0.0529
     44 H15        14.6292   23.9969   16.9165 H         1 623         0.0553
     45 H16        18.8132   25.5553   15.6057 H         1 623         0.3181
     46 H17        18.5083   26.5160   17.0777 H         1 623         0.3181
     47 H18        15.9221   23.7567   15.5824 H         1 623         0.3181
     48 H19        17.4856   24.1776   14.8334 H         1 623         0.3181
@<TRIPOS>BOND
     1    1    6 ar 
     2    1    2 ar 
     3    2    7 1  
     4    2    3 ar 
     5    3    4 ar 
     6    4    8 1  
     7    4    5 ar 
     8    5    6 ar 
     9    6    9 1  
    10    9   10 1  
    11   10   15 ar 
    12   10   11 ar 
    13   11   12 ar 
    14   12   16 1  
    15   12   13 ar 
    16   13   14 ar 
    17   14   15 ar 
    18   16   18 ar 
    19   16   17 ar 
    20    8   19 1  
    21   19   24 ar 
    22   19   20 ar 
    23   20   21 ar 
    24   21   22 ar 
    25   22   23 ar 
    26   23   25 1  
    27   23   24 ar 
    28   25   27 ar 
    29   25   26 ar 
    30    3   29 1  
    31    1   28 1  
    32    7   30 1  
    33    7   31 1  
    34    7   32 1  
    35   11   33 1  
    36   13   34 1  
    37   14   35 1  
    38   15   36 1  
    39   17   37 1  
    40   17   38 1  
    41   18   39 1  
    42   18   40 1  
    43   20   41 1  
    44   21   42 1  
    45   22   43 1  
    46   24   44 1  
    47   26   45 1  
    48   26   46 1  
    49   27   47 1  
    50   27   48 1  
@<TRIPOS>SUBSTRUCTURE
     1 623         1

