### 
### Created by X-TOOL on Mon Sep 10 21:12:47 2018
### 

@<TRIPOS>MOLECULE
1qbn_ligand
   49    52     1     0     0
SMALL
GAST_HUCK


@<TRIPOS>ATOM
      1 C1          8.4360   25.0980   19.7900 C.ar      1 688         0.0015
      2 C2          9.2620   26.1940   19.3850 C.ar      1 688         0.0131
      3 C3         10.6500   25.9330   19.2850 C.ar      1 688         0.0018
      4 C4         11.0780   24.5730   19.2860 C.ar      1 688         0.1814
      5 N5         10.2640   23.5490   19.5690 N.ar      1 688        -0.2398
      6 C6          8.9360   23.7950   19.7040 C.ar      1 688         0.1789
      7 O1         12.3380   24.2640   18.8910 O.3       1 688        -0.2415
      8 O2          8.1790   22.7170   20.0600 O.3       1 688        -0.2450
      9 C7          8.7860   27.4790   19.4860 C.2       1 688         0.0668
     10 O3          9.5170   28.4530   19.4130 O.co2     1 688        -0.5578
     11 O4          7.4780   27.6860   19.6860 O.co2     1 688        -0.5578
     12 C11         8.7770   21.5570   20.5010 C.ar      1 688         0.1486
     13 C12         8.5490   20.4910   19.6100 C.ar      1 688        -0.0307
     14 C13         9.0190   19.2080   19.8720 C.ar      1 688         0.0070
     15 C14         9.7720   18.9710   21.0620 C.ar      1 688        -0.0757
     16 C15        10.0260   20.0430   21.9510 C.ar      1 688        -0.0403
     17 C16         9.5140   21.3370   21.6660 C.ar      1 688         0.1219
     18 C17         8.7720   18.1590   18.9400 C.cat     1 688         0.2271
     19 N11         8.0230   18.2430   17.8670 N.pl3     1 688        -0.2735
     20 N12         9.3080   16.9500   19.0890 N.pl3     1 688        -0.2735
     21 O11         9.8170   22.3350   22.5530 O.3       1 688        -0.3357
     22 C21        13.4420   25.0430   18.8220 C.ar      1 688         0.1213
     23 C22        13.5780   26.0610   19.7880 C.ar      1 688        -0.0267
     24 C23        14.7230   26.8870   19.7690 C.ar      1 688        -0.0673
     25 C24        15.6630   26.6870   18.7470 C.ar      1 688        -0.0588
     26 C25        15.5200   25.6990   17.7620 C.ar      1 688         0.0178
     27 C26        14.3780   24.8600   17.7760 C.ar      1 688        -0.0153
     28 C27        16.4350   25.4490   16.7160 C.2       1 688         0.1333
     29 N21        17.5250   26.1450   16.3940 N.pl3     1 688        -0.2618
     30 N22        16.5180   24.2260   16.1370 N.2       1 688        -0.3247
     31 C28        17.6700   24.1240   15.3190 C.2       1 688        -0.0199
     32 C29        18.2440   25.5550   15.3330 C.2       1 688         0.0363
     33 H1          7.4327   25.2761   20.1598 H         1 688         0.0583
     34 H2         11.3661   26.7433   19.2099 H         1 688         0.0583
     35 H3          7.9936   20.6744   18.6974 H         1 688         0.0522
     36 H4         10.1462   17.9779   21.2829 H         1 688         0.0503
     37 H5         10.6107   19.8765   22.8485 H         1 688         0.0511
     38 H6          7.9074   17.4232   17.2542 H         1 688         0.3180
     39 H7          7.5503   19.1287   17.6370 H         1 688         0.3180
     40 H8          9.9187   16.7531   19.8947 H         1 688         0.3180
     41 H9          9.1121   16.2112   18.3986 H         1 688         0.3180
     42 H10        10.7602   22.4381   22.6019 H         1 688         0.2448
     43 H11        12.8101   26.2083   20.5388 H         1 688         0.0564
     44 H12        14.8713   27.6529   20.5217 H         1 688         0.0595
     45 H13        16.5391   27.3247   18.7173 H         1 688         0.0550
     46 H14        14.2267   24.1051   17.0130 H         1 688         0.0567
     47 H15        17.8102   27.0149   16.8661 H         1 688         0.2382
     48 H16        18.0571   23.2460   14.8041 H         1 688         0.0471
     49 H17        19.0057   25.9954   14.6913 H         1 688         0.0891
@<TRIPOS>BOND
     1    1    6 ar 
     2    1    2 ar 
     3    2    9 1  
     4    2    3 ar 
     5    3    4 ar 
     6    4    7 1  
     7    4    5 ar 
     8    5    6 ar 
     9    6    8 1  
    10    8   12 1  
    11   12   17 ar 
    12   12   13 ar 
    13   13   14 ar 
    14   14   18 1  
    15   14   15 ar 
    16   15   16 ar 
    17   16   17 ar 
    18   17   21 1  
    19   18   20 ar 
    20   18   19 ar 
    21    7   22 1  
    22   22   27 ar 
    23   22   23 ar 
    24   23   24 ar 
    25   24   25 ar 
    26   25   26 ar 
    27   26   28 1  
    28   26   27 ar 
    29   28   30 2  
    30   28   29 1  
    31   29   32 1  
    32   32   31 2  
    33   31   30 1  
    34    9   11 ar 
    35    9   10 ar 
    36    1   33 1  
    37    3   34 1  
    38   13   35 1  
    39   15   36 1  
    40   16   37 1  
    41   19   38 1  
    42   19   39 1  
    43   20   40 1  
    44   20   41 1  
    45   21   42 1  
    46   23   43 1  
    47   24   44 1  
    48   25   45 1  
    49   27   46 1  
    50   29   47 1  
    51   31   48 1  
    52   32   49 1  
@<TRIPOS>SUBSTRUCTURE
     1 688         1

