### 
### Created by X-TOOL on Mon Sep 10 21:12:47 2018
### 

@<TRIPOS>MOLECULE
1qbv_ligand
   56    58     1     0     0
SMALL
GAST_HUCK


@<TRIPOS>ATOM
      1 C1         19.5743  -15.5686   25.3538 C.ar      1 PPX        -0.0353
      2 N1         16.5750  -16.9570   23.5180 N.4       1 PPX         0.2394
      3 C2         17.8510  -16.1860   23.6670 C.3       1 PPX         0.0746
      4 C3         18.1370  -15.9710   25.1610 C.3       1 PPX         0.0416
      5 C5         19.9340  -14.3910   25.9840 C.ar      1 PPX        -0.0600
      6 C6         20.5860  -16.4500   24.9930 C.ar      1 PPX        -0.0600
      7 C7         21.2600  -13.9890   26.0220 C.ar      1 PPX        -0.0686
      8 C8         21.9240  -16.0560   25.0270 C.ar      1 PPX        -0.0686
      9 C9         22.2510  -14.8020   25.5410 C.ar      1 PPX        -0.0687
     10 C10        17.6040  -14.8370   22.9630 C.2       1 PPX         0.2313
     11 O11        16.5700  -14.2150   23.1900 O.2       1 PPX        -0.3903
     12 N12        18.5200  -14.4270   22.0640 N.am      1 PPX        -0.2470
     13 C13        19.5980  -15.2610   21.4760 C.3       1 PPX         0.0371
     14 C14        18.3790  -13.1430   21.3490 C.3       1 PPX         0.1337
     15 C15        19.5820  -13.1550   20.3720 C.3       1 PPX        -0.0104
     16 C16        20.5100  -14.2340   20.9120 C.3       1 PPX        -0.0281
     17 C17        17.0600  -13.0640   20.5960 C.2       1 PPX         0.2019
     18 O18        16.7200  -13.9660   19.8340 O.2       1 PPX        -0.3945
     19 N19        16.3020  -11.9960   20.8110 N.am      1 PPX        -0.2831
     20 C20        14.9960  -11.7850   20.1770 C.3       1 PPX         0.0508
     21 C30        14.0530  -11.0400   21.0760 C.3       1 PPX         0.0465
     22 N27        13.1720  -11.9830   21.6650 N.pl3     1 PPX        -0.3126
     23 C21        12.3720  -11.6560   22.6740 C.ar      1 PPX         0.0586
     24 C22        11.4520  -12.6130   23.0630 C.ar      1 PPX        -0.0169
     25 C23        10.6030  -12.3620   24.1440 C.ar      1 PPX        -0.0037
     26 N24        10.6820  -11.2130   24.8140 N.ar      1 PPX        -0.3162
     27 C25        11.5670  -10.2590   24.4560 C.ar      1 PPX        -0.0037
     28 C26        12.4380  -10.4570   23.3840 C.ar      1 PPX        -0.0169
     29 H1         16.6725  -17.8569   23.9615 H         1 PPX         0.2017
     30 H2         16.3722  -17.0851   22.5390 H         1 PPX         0.2017
     31 H3         15.8219  -16.4477   23.9534 H         1 PPX         0.2017
     32 H4         18.6902  -16.7203   23.1977 H         1 PPX         0.1123
     33 H5         17.4808  -15.1773   25.5475 H         1 PPX         0.0507
     34 H6         17.9432  -16.9056   25.7077 H         1 PPX         0.0507
     35 H7         19.1727  -13.7775   26.4520 H         1 PPX         0.0557
     36 H8         20.3325  -17.4567   24.6811 H         1 PPX         0.0557
     37 H9         21.5151  -13.0206   26.4370 H         1 PPX         0.0599
     38 H10        22.7000  -16.7170   24.6582 H         1 PPX         0.0599
     39 H11        23.2836  -14.4727   25.5597 H         1 PPX         0.0559
     40 H12        19.2070  -15.9234   20.6896 H         1 PPX         0.0524
     41 H13        20.1021  -15.8636   22.2459 H         1 PPX         0.0524
     42 H14        18.4486  -12.2962   22.0476 H         1 PPX         0.0802
     43 H15        19.2510  -13.4030   19.3527 H         1 PPX         0.0313
     44 H16        20.0863  -12.1774   20.3662 H         1 PPX         0.0313
     45 H17        21.1227  -14.6599   20.1038 H         1 PPX         0.0287
     46 H18        21.1670  -13.8259   21.6941 H         1 PPX         0.0287
     47 H19        16.6399  -11.2961   21.4402 H         1 PPX         0.1852
     48 H20        14.5566  -12.7634   19.9329 H         1 PPX         0.0540
     49 H21        15.1385  -11.2061   19.2526 H         1 PPX         0.0540
     50 H22        13.4784  -10.3078   20.4897 H         1 PPX         0.0537
     51 H23        14.6197  -10.5177   21.8609 H         1 PPX         0.0537
     52 H24        13.1520  -12.9463   21.3009 H         1 PPX         0.1799
     53 H25        11.3899  -13.5552   22.5306 H         1 PPX         0.0610
     54 H26         9.8743  -13.1080   24.4399 H         1 PPX         0.0780
     55 H27        11.6016   -9.3269   25.0084 H         1 PPX         0.0780
     56 H28        13.1542   -9.6917   23.1075 H         1 PPX         0.0610
@<TRIPOS>BOND
     1    1    6 ar 
     2    1    5 ar 
     3    4    1 1  
     4    3    2 1  
     5    3   10 1  
     6    3    4 1  
     7    5    7 ar 
     8    7    9 ar 
     9    9    8 ar 
    10    6    8 ar 
    11   10   12 am 
    12   10   11 2  
    13   12   14 1  
    14   12   13 1  
    15   13   16 1  
    16   16   15 1  
    17   14   15 1  
    18   14   17 1  
    19   17   19 am 
    20   17   18 2  
    21   19   20 1  
    22   20   21 1  
    23   21   22 1  
    24   22   23 1  
    25   23   28 ar 
    26   23   24 ar 
    27   24   25 ar 
    28   25   26 ar 
    29   26   27 ar 
    30   28   27 ar 
    31    2   29 1  
    32    2   30 1  
    33    2   31 1  
    34    3   32 1  
    35    4   33 1  
    36    4   34 1  
    37    5   35 1  
    38    6   36 1  
    39    7   37 1  
    40    8   38 1  
    41    9   39 1  
    42   13   40 1  
    43   13   41 1  
    44   14   42 1  
    45   15   43 1  
    46   15   44 1  
    47   16   45 1  
    48   16   46 1  
    49   19   47 1  
    50   20   48 1  
    51   20   49 1  
    52   21   50 1  
    53   21   51 1  
    54   22   52 1  
    55   24   53 1  
    56   25   54 1  
    57   27   55 1  
    58   28   56 1  
@<TRIPOS>SUBSTRUCTURE
     1 PPX         1

