### 
### Created by X-TOOL on Mon Sep 10 21:12:46 2018
### 

@<TRIPOS>MOLECULE
1qcp_ligand
   55    57     1     0     0
SMALL
GAST_HUCK


@<TRIPOS>ATOM
      1 C51        42.5780   24.5400   50.1400 C.3       1 RWJ         0.0486
      2 C52        42.4600   25.9900   49.9070 C.3       1 RWJ        -0.0332
      3 C53        40.9830   26.2770   49.7880 C.3       1 RWJ        -0.0506
      4 C54        40.2300   24.9390   49.9820 C.3       1 RWJ        -0.0506
      5 C55        41.2720   23.8560   50.1580 C.3       1 RWJ        -0.0332
      6 CP         43.7960   23.8010   49.6310 C.2       1 RWJ         0.1796
      7 OP         44.9000   24.3400   49.6020 O.2       1 RWJ        -0.3968
      8 N          43.6020   22.5540   49.2140 N.am      1 RWJ        -0.2781
      9 CA         44.6940   21.6910   48.7430 C.3       1 RWJ         0.0861
     10 CB         44.6670   20.4120   49.5810 C.3       1 RWJ        -0.0214
     11 CG         45.5690   20.3120   50.7810 C.3       1 RWJ        -0.0174
     12 CD         45.3570   18.9440   51.4400 C.3       1 RWJ         0.0626
     13 NE         45.7970   18.9510   52.8320 N.pl3     1 RWJ        -0.2723
     14 CZ         45.8730   17.8830   53.6230 C.cat     1 RWJ         0.2882
     15 NH1        45.5360   16.6800   53.1820 N.pl3     1 RWJ        -0.2849
     16 NH2        46.3080   18.0280   54.8680 N.pl3     1 RWJ        -0.2849
     17 O          45.4720   20.4110   46.8570 O.3       1 RWJ        -0.3669
     18 N5         43.3920   23.1090   45.7860 N.2       1 RWJ        -0.3058
     19 C5         44.5070   22.5840   46.3940 C.2       1 RWJ         0.1288
     20 S5         45.8900   23.5580   46.1550 S.3       1 RWJ         0.0108
     21 C61        43.6080   24.2810   45.1280 C.ar      1 RWJ         0.0222
     22 C62        44.9700   24.7220   45.2100 C.ar      1 RWJ         0.0528
     23 C63        45.3600   25.8960   44.5780 C.ar      1 RWJ        -0.0503
     24 C64        44.4360   26.6540   43.8570 C.ar      1 RWJ        -0.0722
     25 C65        43.1030   26.2430   43.7750 C.ar      1 RWJ        -0.0730
     26 C66        42.6950   25.0580   44.4110 C.ar      1 RWJ        -0.0588
     27 C          44.4710   21.3240   47.2760 C.3       1 RWJ         0.1518
     28 H1         42.8137   24.5355   51.2144 H         1 RWJ         0.0538
     29 H2         42.9792   26.2709   48.9788 H         1 RWJ         0.0292
     30 H3         42.8904   26.5484   50.7513 H         1 RWJ         0.0292
     31 H4         40.7603   26.6921   48.7940 H         1 RWJ         0.0267
     32 H5         40.6768   26.9956   50.5625 H         1 RWJ         0.0267
     33 H6         39.6102   24.7247   49.0989 H         1 RWJ         0.0267
     34 H7         39.5898   24.9936   50.8748 H         1 RWJ         0.0267
     35 H8         41.1256   23.3374   51.1169 H         1 RWJ         0.0292
     36 H9         41.2101   23.1291   49.3348 H         1 RWJ         0.0292
     37 H10        42.6718   22.1869   49.2211 H         1 RWJ         0.1858
     38 H11        45.6599   22.2044   48.8583 H         1 RWJ         0.0617
     39 H12        44.9284   19.5804   48.9101 H         1 RWJ         0.0292
     40 H13        43.6355   20.2828   49.9405 H         1 RWJ         0.0292
     41 H14        45.3232   21.1102   51.4969 H         1 RWJ         0.0300
     42 H15        46.6180   20.4127   50.4655 H         1 RWJ         0.0300
     43 H16        45.9318   18.1869   50.8865 H         1 RWJ         0.0689
     44 H17        44.2871   18.6910   51.4039 H         1 RWJ         0.0689
     45 H18        46.0715   19.8579   53.2357 H         1 RWJ         0.2642
     46 H19        45.6012   15.8649   53.8084 H         1 RWJ         0.2615
     47 H20        45.2088   16.5598   52.2128 H         1 RWJ         0.2615
     48 H21        46.5714   18.9609   55.2161 H         1 RWJ         0.2615
     49 H22        46.3823   17.2077   55.4864 H         1 RWJ         0.2615
     50 H23        45.4261   19.6259   47.3900 H         1 RWJ         0.2148
     51 H24        46.3903   26.2261   44.6453 H         1 RWJ         0.0565
     52 H25        44.7532   27.5634   43.3596 H         1 RWJ         0.0552
     53 H26        42.3848   26.8372   43.2217 H         1 RWJ         0.0552
     54 H27        41.6598   24.7433   44.3444 H         1 RWJ         0.0558
     55 H28        43.4851   20.8469   47.1737 H         1 RWJ         0.0901
@<TRIPOS>BOND
     1    1    2 1  
     2    1    5 1  
     3    6    1 1  
     4    2    3 1  
     5    4    3 1  
     6    5    4 1  
     7    6    7 2  
     8    8    6 am 
     9    9    8 1  
    10    9   10 1  
    11   27    9 1  
    12   10   11 1  
    13   11   12 1  
    14   12   13 1  
    15   13   14 ar 
    16   14   15 ar 
    17   14   16 ar 
    18   27   17 1  
    19   19   18 2  
    20   18   21 1  
    21   19   20 1  
    22   19   27 1  
    23   20   22 1  
    24   21   22 ar 
    25   21   26 ar 
    26   22   23 ar 
    27   23   24 ar 
    28   24   25 ar 
    29   25   26 ar 
    30    1   28 1  
    31    2   29 1  
    32    2   30 1  
    33    3   31 1  
    34    3   32 1  
    35    4   33 1  
    36    4   34 1  
    37    5   35 1  
    38    5   36 1  
    39    8   37 1  
    40    9   38 1  
    41   10   39 1  
    42   10   40 1  
    43   11   41 1  
    44   11   42 1  
    45   12   43 1  
    46   12   44 1  
    47   13   45 1  
    48   15   46 1  
    49   15   47 1  
    50   16   48 1  
    51   16   49 1  
    52   17   50 1  
    53   23   51 1  
    54   24   52 1  
    55   25   53 1  
    56   26   54 1  
    57   27   55 1  
@<TRIPOS>SUBSTRUCTURE
     1 RWJ         1

