### 
### Created by X-TOOL on Mon Sep 10 21:12:46 2018
### 

@<TRIPOS>MOLECULE
1qf0_ligand
   62    64     1     0     0
SMALL
GAST_HUCK


@<TRIPOS>ATOM
      1 SG         34.2260   43.1720   -6.9870 S.3       1 TI2        -0.1510
      2 CA1        34.6030   41.5420   -6.2280 C.3       1 TI2         0.1009
      3 CB1        35.0560   40.5030   -7.2400 C.3       1 TI2         0.0096
      4 CG1        33.9310   39.7730   -7.8610 C.ar      1 TI2        -0.0397
      5 CD1        33.4910   40.1050   -9.1270 C.ar      1 TI2        -0.0602
      6 CD2        33.2620   38.7820   -7.1420 C.ar      1 TI2        -0.0602
      7 CE1        32.3900   39.4670   -9.6770 C.ar      1 TI2        -0.0686
      8 CE2        32.1680   38.1390   -7.6770 C.ar      1 TI2        -0.0686
      9 CZ1        31.7230   38.4810   -8.9510 C.ar      1 TI2        -0.0687
     10 C1         35.7580   41.9180   -5.3220 C.2       1 TI2         0.1931
     11 O1         36.8010   42.3790   -5.7990 O.2       1 TI2        -0.3955
     12 N2         35.5420   41.8020   -4.0220 N.am      1 TI2        -0.2628
     13 CA2        36.5570   42.1750   -3.0600 C.3       1 TI2         0.1404
     14 CB2        35.9360   42.2750   -1.6710 C.3       1 TI2         0.0214
     15 CG2        36.8080   42.9630   -0.6820 C.ar      1 TI2        -0.0386
     16 CD3        37.1480   44.3040   -0.8620 C.ar      1 TI2        -0.0601
     17 CD4        37.3170   42.2770    0.4140 C.ar      1 TI2        -0.0601
     18 CE3        37.9910   44.9590    0.0440 C.ar      1 TI2        -0.0686
     19 CE4        38.1610   42.9220    1.3260 C.ar      1 TI2        -0.0686
     20 CZ2        38.4980   44.2650    1.1400 C.ar      1 TI2        -0.0687
     21 C2         37.7240   41.2050   -3.0120 C.2       1 TI2         0.2055
     22 O2         38.8880   41.6100   -2.9040 O.2       1 TI2        -0.3942
     23 N3         37.3860   39.9280   -3.1110 N.am      1 TI2        -0.2678
     24 CA3        38.3190   38.8210   -3.0360 C.3       1 TI2         0.1025
     25 CB3        37.6990   37.8180   -2.0690 C.3       1 TI2         0.0108
     26 CG3        38.5660   36.7060   -1.5080 C.ar      1 TI2        -0.0499
     27 CD5        39.9190   36.9140   -1.2320 C.ar      1 TI2        -0.0686
     28 CE5        40.6780   35.8700   -0.6830 C.ar      1 TI2        -0.0398
     29 CD6        37.9620   35.4710   -1.2490 C.ar      1 TI2        -0.0686
     30 CE6        38.7180   34.4310   -0.6980 C.ar      1 TI2        -0.0398
     31 CZ3        40.0750   34.6300   -0.4140 C.ar      1 TI2         0.0805
     32 OH         40.8060   33.6190    0.1270 O.3       1 TI2        -0.3376
     33 C3         38.4740   38.2180   -4.4360 C.2       1 TI2         0.0619
     34 O3         37.4580   38.0600   -5.1470 O.co2     1 TI2        -0.5665
     35 OXT        39.6150   37.9430   -4.8370 O.co2     1 TI2        -0.5665
     36 H1         33.9775   43.8287   -6.2638 H         1 TI2         0.1047
     37 H2         33.7430   41.1545   -5.6621 H         1 TI2         0.0672
     38 H3         35.7060   39.7769   -6.7299 H         1 TI2         0.0461
     39 H4         35.6248   41.0106   -8.0330 H         1 TI2         0.0461
     40 H5         34.0097   40.8693   -9.6943 H         1 TI2         0.0557
     41 H6         33.6077   38.5149   -6.1499 H         1 TI2         0.0557
     42 H7         32.0480   39.7343  -10.6703 H         1 TI2         0.0599
     43 H8         31.6561   37.3706   -7.1091 H         1 TI2         0.0599
     44 H9         30.8603   37.9821   -9.3774 H         1 TI2         0.0559
     45 H10        34.6632   41.4509   -3.6988 H         1 TI2         0.1885
     46 H11        36.9469   43.1632   -3.3453 H         1 TI2         0.0823
     47 H12        35.7310   41.2575   -1.3067 H         1 TI2         0.0474
     48 H13        34.9915   42.8332   -1.7507 H         1 TI2         0.0474
     49 H14        36.7544   44.8459   -1.7143 H         1 TI2         0.0557
     50 H15        37.0587   41.2349    0.5639 H         1 TI2         0.0557
     51 H16        38.2478   46.0013   -0.1069 H         1 TI2         0.0599
     52 H17        38.5536   42.3785    2.1778 H         1 TI2         0.0599
     53 H18        39.1514   44.7649    1.8458 H         1 TI2         0.0559
     54 H19        36.4190   39.7124   -3.2471 H         1 TI2         0.1877
     55 H20        39.2980   39.1570   -2.6637 H         1 TI2         0.0747
     56 H21        36.8603   37.3387   -2.5951 H         1 TI2         0.0446
     57 H22        37.3150   38.3910   -1.2122 H         1 TI2         0.0446
     58 H23        40.3785   37.8735   -1.4401 H         1 TI2         0.0530
     59 H24        41.7295   36.0199   -0.4664 H         1 TI2         0.0525
     60 H25        36.9124   35.3206   -1.4744 H         1 TI2         0.0530
     61 H26        38.2546   33.4731   -0.4913 H         1 TI2         0.0525
     62 H27        40.2517   32.8564    0.2441 H         1 TI2         0.2458
@<TRIPOS>BOND
     1    1    2 1  
     2    2   10 1  
     3    2    3 1  
     4    3    4 1  
     5    4    6 ar 
     6    4    5 ar 
     7    5    7 ar 
     8    7    9 ar 
     9    9    8 ar 
    10    8    6 ar 
    11   10   12 am 
    12   10   11 2  
    13   12   13 1  
    14   13   21 1  
    15   13   14 1  
    16   14   15 1  
    17   15   17 ar 
    18   15   16 ar 
    19   16   18 ar 
    20   18   20 ar 
    21   20   19 ar 
    22   19   17 ar 
    23   21   23 am 
    24   21   22 2  
    25   23   24 1  
    26   24   33 1  
    27   24   25 1  
    28   25   26 1  
    29   26   29 ar 
    30   26   27 ar 
    31   27   28 ar 
    32   28   31 ar 
    33   31   32 1  
    34   31   30 ar 
    35   30   29 ar 
    36   33   35 ar 
    37   33   34 ar 
    38    1   36 1  
    39    2   37 1  
    40    3   38 1  
    41    3   39 1  
    42    5   40 1  
    43    6   41 1  
    44    7   42 1  
    45    8   43 1  
    46    9   44 1  
    47   12   45 1  
    48   13   46 1  
    49   14   47 1  
    50   14   48 1  
    51   16   49 1  
    52   17   50 1  
    53   18   51 1  
    54   19   52 1  
    55   20   53 1  
    56   23   54 1  
    57   24   55 1  
    58   25   56 1  
    59   25   57 1  
    60   27   58 1  
    61   28   59 1  
    62   29   60 1  
    63   30   61 1  
    64   32   62 1  
@<TRIPOS>SUBSTRUCTURE
     1 TI2         1

