### 
### Created by X-TOOL on Mon Sep 10 21:12:46 2018
### 

@<TRIPOS>MOLECULE
1qf1_ligand
   53    53     1     0     0
SMALL
GAST_HUCK


@<TRIPOS>ATOM
      1 SG         34.1310   43.3010   -7.0630 S.3       1 TI1        -0.1531
      2 CA1        34.4690   41.5490   -6.5380 C.3       1 TI1         0.0914
      3 CB1        35.1010   40.6960   -7.6440 C.3       1 TI1        -0.0242
      4 CG1        34.1900   39.6960   -8.2710 C.3       1 TI1        -0.0500
      5 CD1        33.8010   38.6400   -7.2630 C.3       1 TI1        -0.0531
      6 CE1        32.7830   37.6990   -7.8710 C.3       1 TI1        -0.0559
      7 CF1        32.4120   36.6230   -6.9030 C.3       1 TI1        -0.0653
      8 C1         35.5610   41.8690   -5.5230 C.2       1 TI1         0.1911
      9 O1         36.6450   42.3190   -5.9160 O.2       1 TI1        -0.3957
     10 N2         35.2970   41.6760   -4.2370 N.am      1 TI1        -0.2629
     11 CA2        36.3130   42.0200   -3.2480 C.3       1 TI1         0.1404
     12 CB2        35.7380   42.0520   -1.8300 C.3       1 TI1         0.0214
     13 CG2        36.6050   42.7960   -0.8590 C.ar      1 TI1        -0.0386
     14 CD3        36.9100   44.1430   -1.0760 C.ar      1 TI1        -0.0601
     15 CD4        37.1720   42.1470    0.2340 C.ar      1 TI1        -0.0601
     16 CE3        37.7740   44.8300   -0.2190 C.ar      1 TI1        -0.0686
     17 CE4        38.0400   42.8280    1.0980 C.ar      1 TI1        -0.0686
     18 CZ2        38.3400   44.1690    0.8660 C.ar      1 TI1        -0.0687
     19 C2         37.5570   41.1310   -3.2890 C.2       1 TI1         0.2054
     20 O2         38.6880   41.6340   -3.2900 O.2       1 TI1        -0.3942
     21 N3         37.3470   39.8200   -3.3240 N.am      1 TI1        -0.2696
     22 CA3        38.4450   38.8600   -3.3560 C.3       1 TI1         0.0916
     23 CB3        38.3580   37.9350   -2.1490 C.3       1 TI1        -0.0300
     24 C3         38.4340   38.0570   -4.6560 C.2       1 TI1         0.0598
     25 O3         37.3870   38.0180   -5.3340 O.co2     1 TI1        -0.5666
     26 OXT        39.4860   37.5040   -5.0180 O.co2     1 TI1        -0.5666
     27 H1         33.8334   43.8385   -6.2639 H         1 TI1         0.1046
     28 H2         33.5866   41.0497   -6.1113 H         1 TI1         0.0649
     29 H3         35.9547   40.1544   -7.2106 H         1 TI1         0.0300
     30 H4         35.4589   41.3729   -8.4337 H         1 TI1         0.0300
     31 H5         34.7034   39.2179   -9.1182 H         1 TI1         0.0267
     32 H6         33.2841   40.2055   -8.6313 H         1 TI1         0.0267
     33 H7         33.3662   39.1244   -6.3763 H         1 TI1         0.0265
     34 H8         34.6945   38.0700   -6.9684 H         1 TI1         0.0265
     35 H9         33.2105   37.2398   -8.7745 H         1 TI1         0.0263
     36 H10        31.8812   38.2683   -8.1406 H         1 TI1         0.0263
     37 H11        31.6727   35.9526   -7.3656 H         1 TI1         0.0230
     38 H12        31.9804   37.0764   -5.9985 H         1 TI1         0.0230
     39 H13        33.3097   36.0478   -6.6323 H         1 TI1         0.0230
     40 H14        34.4156   41.3007   -3.9502 H         1 TI1         0.1885
     41 H15        36.6456   43.0408   -3.4873 H         1 TI1         0.0823
     42 H16        35.6240   41.0170   -1.4753 H         1 TI1         0.0474
     43 H17        34.7523   42.5390   -1.8631 H         1 TI1         0.0474
     44 H18        36.4704   44.6615   -1.9204 H         1 TI1         0.0557
     45 H19        36.9398   41.1044    0.4187 H         1 TI1         0.0557
     46 H20        38.0022   45.8743   -0.3992 H         1 TI1         0.0599
     47 H21        38.4774   42.3126    1.9454 H         1 TI1         0.0599
     48 H22        39.0142   44.6967    1.5309 H         1 TI1         0.0559
     49 H23        36.4065   39.4802   -3.3286 H         1 TI1         0.1875
     50 H24        39.3933   39.4148   -3.3022 H         1 TI1         0.0723
     51 H25        39.1882   37.2140   -2.1790 H         1 TI1         0.0270
     52 H26        37.4009   37.3932   -2.1704 H         1 TI1         0.0270
     53 H27        38.4221   38.5297   -1.2259 H         1 TI1         0.0270
@<TRIPOS>BOND
     1    1    2 1  
     2    2    8 1  
     3    2    3 1  
     4    3    4 1  
     5    4    5 1  
     6    5    6 1  
     7    6    7 1  
     8    8   10 am 
     9    8    9 2  
    10   10   11 1  
    11   11   19 1  
    12   11   12 1  
    13   12   13 1  
    14   13   15 ar 
    15   13   14 ar 
    16   14   16 ar 
    17   16   18 ar 
    18   18   17 ar 
    19   17   15 ar 
    20   19   21 am 
    21   19   20 2  
    22   21   22 1  
    23   22   24 1  
    24   22   23 1  
    25   24   26 ar 
    26   24   25 ar 
    27    1   27 1  
    28    2   28 1  
    29    3   29 1  
    30    3   30 1  
    31    4   31 1  
    32    4   32 1  
    33    5   33 1  
    34    5   34 1  
    35    6   35 1  
    36    6   36 1  
    37    7   37 1  
    38    7   38 1  
    39    7   39 1  
    40   10   40 1  
    41   11   41 1  
    42   12   42 1  
    43   12   43 1  
    44   14   44 1  
    45   15   45 1  
    46   16   46 1  
    47   17   47 1  
    48   18   48 1  
    49   21   49 1  
    50   22   50 1  
    51   23   51 1  
    52   23   52 1  
    53   23   53 1  
@<TRIPOS>SUBSTRUCTURE
     1 TI1         1

