### 
### Created by X-TOOL on Mon Sep 10 21:12:46 2018
### 

@<TRIPOS>MOLECULE
1qf2_ligand
   52    54     1     0     0
SMALL
GAST_HUCK


@<TRIPOS>ATOM
      1 SG         36.1630   42.4450   -6.1130 S.3       1 TI3        -0.1510
      2 CA1        36.8570   42.4760   -4.3810 C.3       1 TI3         0.1009
      3 CB1        35.7910   42.4910   -3.2890 C.3       1 TI3         0.0096
      4 CG1        36.3600   42.5880   -1.8980 C.ar      1 TI3        -0.0397
      5 CD1        37.0910   43.7140   -1.5100 C.ar      1 TI3        -0.0602
      6 CD2        36.1980   41.5450   -0.9900 C.ar      1 TI3        -0.0602
      7 CE1        37.6510   43.7920   -0.2420 C.ar      1 TI3        -0.0686
      8 CE2        36.7550   41.6130    0.2810 C.ar      1 TI3        -0.0686
      9 CZ1        37.4820   42.7320    0.6580 C.ar      1 TI3        -0.0687
     10 C1         37.8660   41.3970   -4.0130 C.2       1 TI3         0.1928
     11 O1         39.0490   41.6790   -3.8340 O.2       1 TI3        -0.3956
     12 N2         37.3580   40.1930   -3.7970 N.am      1 TI3        -0.2673
     13 CA2        38.2040   39.0630   -3.4860 C.3       1 TI3         0.1204
     14 C2         38.2310   38.2730   -4.7800 C.2       1 TI3         0.2048
     15 O2         37.3010   38.3880   -5.5820 O.2       1 TI3        -0.3944
     16 N3         39.2610   37.4550   -5.0190 N.am      1 TI3        -0.2413
     17 CD3        40.3860   37.0580   -4.1410 C.3       1 TI3         0.0808
     18 CA3        39.2670   36.7060   -6.2840 C.3       1 TI3         0.0996
     19 CB3        40.7070   36.2070   -6.3690 C.3       1 TI3        -0.0137
     20 CG3        41.0540   35.9540   -4.9460 C.3       1 TI3        -0.0159
     21 CG4        40.0020   36.5450   -2.7660 C.ar      1 TI3        -0.0176
     22 CD5        38.7600   35.9420   -2.5460 C.ar      1 TI3        -0.0581
     23 CD4        40.9070   36.6040   -1.7130 C.ar      1 TI3        -0.0581
     24 CE5        38.4290   35.4090   -1.3070 C.ar      1 TI3        -0.0685
     25 CE4        40.5880   36.0710   -0.4680 C.ar      1 TI3        -0.0685
     26 CZ3        39.3480   35.4720   -0.2650 C.ar      1 TI3        -0.0687
     27 C3         38.2320   35.5680   -6.3930 C.2       1 TI3         0.0605
     28 O3         37.8780   34.9710   -5.3490 O.co2     1 TI3        -0.5666
     29 OXT        37.7500   35.3150   -7.5250 O.co2     1 TI3        -0.5666
     30 H1         35.6884   41.5693   -6.2679 H         1 TI3         0.1047
     31 H2         37.3957   43.4325   -4.3112 H         1 TI3         0.0672
     32 H3         35.2045   41.5633   -3.3617 H         1 TI3         0.0461
     33 H4         35.1320   43.3556   -3.4570 H         1 TI3         0.0461
     34 H5         37.2221   44.5347   -2.2060 H         1 TI3         0.0557
     35 H6         35.6297   40.6682   -1.2786 H         1 TI3         0.0557
     36 H7         38.2166   44.6694    0.0503 H         1 TI3         0.0599
     37 H8         36.6215   40.7926    0.9768 H         1 TI3         0.0599
     38 H9         37.9192   42.7864    1.6484 H         1 TI3         0.0559
     39 H10        36.3679   40.0630   -3.8502 H         1 TI3         0.1880
     40 H11        37.7753   38.4642   -2.6689 H         1 TI3         0.0763
     41 H12        39.2151   39.3941   -3.2066 H         1 TI3         0.0763
     42 H13        41.0682   37.9106   -4.0086 H         1 TI3         0.0723
     43 H14        39.0686   37.4019   -7.1125 H         1 TI3         0.0730
     44 H15        40.7715   35.2832   -6.9626 H         1 TI3         0.0308
     45 H16        41.3656   36.9712   -6.8073 H         1 TI3         0.0308
     46 H17        40.6756   34.9704   -4.6308 H         1 TI3         0.0311
     47 H18        42.1448   35.9886   -4.8080 H         1 TI3         0.0311
     48 H19        38.0426   35.8895   -3.3569 H         1 TI3         0.0557
     49 H20        41.8735   37.0711   -1.8635 H         1 TI3         0.0557
     50 H21        37.4606   34.9469   -1.1531 H         1 TI3         0.0599
     51 H22        41.3048   36.1222    0.3436 H         1 TI3         0.0599
     52 H23        39.0989   35.0551    0.7041 H         1 TI3         0.0559
@<TRIPOS>BOND
     1    1    2 1  
     2    2   10 1  
     3    2    3 1  
     4    3    4 1  
     5    4    6 ar 
     6    4    5 ar 
     7    5    7 ar 
     8    7    9 ar 
     9    9    8 ar 
    10    8    6 ar 
    11   10   12 am 
    12   10   11 2  
    13   12   13 1  
    14   13   14 1  
    15   14   16 am 
    16   14   15 2  
    17   16   18 1  
    18   16   17 1  
    19   17   21 1  
    20   17   20 1  
    21   20   19 1  
    22   19   18 1  
    23   18   27 1  
    24   27   29 ar 
    25   27   28 ar 
    26   21   23 ar 
    27   21   22 ar 
    28   22   24 ar 
    29   24   26 ar 
    30   26   25 ar 
    31   25   23 ar 
    32    1   30 1  
    33    2   31 1  
    34    3   32 1  
    35    3   33 1  
    36    5   34 1  
    37    6   35 1  
    38    7   36 1  
    39    8   37 1  
    40    9   38 1  
    41   12   39 1  
    42   13   40 1  
    43   13   41 1  
    44   17   42 1  
    45   18   43 1  
    46   19   44 1  
    47   19   45 1  
    48   20   46 1  
    49   20   47 1  
    50   22   48 1  
    51   23   49 1  
    52   24   50 1  
    53   25   51 1  
    54   26   52 1  
@<TRIPOS>SUBSTRUCTURE
     1 TI3         1

