### 
### Created by X-TOOL on Mon Sep 10 21:12:47 2018
### 

@<TRIPOS>MOLECULE
1qfs_ligand
   48    50     1     0     0
SMALL
GAST_HUCK


@<TRIPOS>ATOM
      1 C20        44.9510   36.1250   86.4560 C.ar      1 ZPR        -0.0578
      2 C21        45.6010   35.1180   87.1560 C.ar      1 ZPR        -0.0685
      3 C22        46.0480   35.3550   88.4520 C.ar      1 ZPR        -0.0687
      4 C23        45.8400   36.6010   89.0380 C.ar      1 ZPR        -0.0685
      5 C24        45.1910   37.5990   88.3290 C.ar      1 ZPR        -0.0578
      6 C19        44.7380   37.3730   87.0350 C.ar      1 ZPR        -0.0130
      7 C18        44.0200   38.4530   86.2780 C.3       1 ZPR         0.1113
      8 O17        42.6280   38.2980   86.4770 O.3       1 ZPR        -0.2504
      9 C15        41.9670   37.8030   85.4520 C.2       1 ZPR         0.3265
     10 O16        42.5230   37.5020   84.3900 O.2       1 ZPR        -0.3772
     11 N14        40.6530   37.6370   85.6310 N.am      1 ZPR        -0.2273
     12 C10        39.7710   37.0770   84.6100 C.3       1 ZPR         0.1357
     13 C8         39.3320   38.1410   83.6000 C.2       1 ZPR         0.2046
     14 O9         39.4640   39.3500   83.8480 O.2       1 ZPR        -0.3943
     15 C11        38.5890   36.5870   85.4390 C.3       1 ZPR        -0.0104
     16 C12        38.4670   37.6620   86.4660 C.3       1 ZPR        -0.0282
     17 C13        39.9070   37.9120   86.8750 C.3       1 ZPR         0.0388
     18 C4         38.3820   37.7120   80.1390 C.3       1 ZPR        -0.0257
     19 C5         38.1310   36.3520   80.6530 C.3       1 ZPR        -0.0303
     20 C1         36.9220   39.1260   81.6880 C.3       1 ZPR         0.0673
     21 O2         36.0150   38.0390   81.8940 O.3       1 ZPR        -0.3927
     22 N7         38.8170   37.6980   82.4380 N.am      1 ZPR        -0.2661
     23 C6         38.7470   36.2860   82.0210 C.3       1 ZPR         0.0344
     24 C3         38.3490   38.5950   81.3850 C.3       1 ZPR         0.0681
     25 H1         44.6049   35.9374   85.4460 H         1 ZPR         0.0557
     26 H2         45.7598   34.1501   86.6944 H         1 ZPR         0.0599
     27 H3         46.5564   34.5725   89.0037 H         1 ZPR         0.0559
     28 H4         46.1855   36.7900   90.0479 H         1 ZPR         0.0599
     29 H5         45.0348   38.5679   88.7894 H         1 ZPR         0.0557
     30 H6         44.2520   38.3704   85.2059 H         1 ZPR         0.0776
     31 H7         44.3391   39.4387   86.6474 H         1 ZPR         0.0776
     32 H8         40.2569   36.2459   84.0778 H         1 ZPR         0.0801
     33 H9         38.8022   35.6127   85.9030 H         1 ZPR         0.0313
     34 H10        37.6767   36.5109   84.8292 H         1 ZPR         0.0313
     35 H11        37.8663   37.3232   87.3229 H         1 ZPR         0.0287
     36 H12        38.0153   38.5686   86.0370 H         1 ZPR         0.0287
     37 H13        40.0511   38.9524   87.2016 H         1 ZPR         0.0523
     38 H14        40.2143   37.2289   87.6805 H         1 ZPR         0.0523
     39 H15        37.5980   38.0113   79.4279 H         1 ZPR         0.0289
     40 H16        39.3642   37.7681   79.6470 H         1 ZPR         0.0289
     41 H17        38.5954   35.6054   79.9920 H         1 ZPR         0.0285
     42 H18        37.0490   36.1642   80.7153 H         1 ZPR         0.0285
     43 H19        36.9526   39.7485   82.5944 H         1 ZPR         0.0580
     44 H20        36.5736   39.7319   80.8386 H         1 ZPR         0.0580
     45 H21        36.3120   37.5152   82.6287 H         1 ZPR         0.2095
     46 H22        39.7511   35.8389   81.9785 H         1 ZPR         0.0522
     47 H23        38.1154   35.7043   82.7085 H         1 ZPR         0.0522
     48 H24        39.0313   39.4502   81.2706 H         1 ZPR         0.0581
@<TRIPOS>BOND
     1    1    2 ar 
     2    6    1 ar 
     3    2    3 ar 
     4    4    3 ar 
     5    5    4 ar 
     6    6    5 ar 
     7    7    6 1  
     8    8    7 1  
     9    9    8 1  
    10    9   10 2  
    11   11    9 am 
    12   12   11 1  
    13   11   17 1  
    14   13   12 1  
    15   12   15 1  
    16   13   14 2  
    17   22   13 am 
    18   15   16 1  
    19   16   17 1  
    20   19   18 1  
    21   18   24 1  
    22   23   19 1  
    23   20   21 1  
    24   24   20 1  
    25   22   23 1  
    26   22   24 1  
    27    1   25 1  
    28    2   26 1  
    29    3   27 1  
    30    4   28 1  
    31    5   29 1  
    32    7   30 1  
    33    7   31 1  
    34   12   32 1  
    35   15   33 1  
    36   15   34 1  
    37   16   35 1  
    38   16   36 1  
    39   17   37 1  
    40   17   38 1  
    41   18   39 1  
    42   18   40 1  
    43   19   41 1  
    44   19   42 1  
    45   20   43 1  
    46   20   44 1  
    47   21   45 1  
    48   23   46 1  
    49   23   47 1  
    50   24   48 1  
@<TRIPOS>SUBSTRUCTURE
     1 ZPR         1

