### 
### Created by X-TOOL on Fri Nov 18 12:34:33 2016
### 

@<TRIPOS>MOLECULE
1qft_ligand
   18    18     1     0     0
SMALL
GAST_HUCK


@<TRIPOS>ATOM
      1 N          71.8720   47.2080   26.1100 N.4       1 HSM         0.2196
      2 CA         72.6830   46.2330   25.3940 C.3       1 HSM        -0.0294
      3 CB         73.0430   45.0470   26.2970 C.3       1 HSM         0.0142
      4 CG         73.7210   43.9370   25.5650 C.2       1 HSM        -0.0021
      5 ND1        75.0750   43.9390   25.2840 N.2       1 HSM        -0.3253
      6 CD2        73.2220   42.8020   25.0140 C.2       1 HSM         0.0291
      7 CE1        75.3780   42.8580   24.5830 C.2       1 HSM         0.0907
      8 NE2        74.2700   42.1500   24.4040 N.pl3     1 HSM        -0.2752
      9 H1         71.6494   47.9757   25.4959 H         1 HSM         0.1995
     10 H2         72.3855   47.5525   26.9060 H         1 HSM         0.1995
     11 H3         71.0197   46.7707   26.4236 H         1 HSM         0.1995
     12 H4         73.6089   46.7179   25.0512 H         1 HSM         0.0830
     13 H5         72.1184   45.8646   24.5248 H         1 HSM         0.0830
     14 H6         72.1183   44.6561   26.7465 H         1 HSM         0.0424
     15 H7         73.7147   45.4036   27.0917 H         1 HSM         0.0424
     16 H8         72.1858   42.4688   25.0479 H         1 HSM         0.0729
     17 H9         76.3686   42.5943   24.2154 H         1 HSM         0.1199
     18 H10        74.2047   41.2584   23.8924 H         1 HSM         0.2361
@<TRIPOS>BOND
     1    2    1 1  
     2    2    3 1  
     3    3    4 1  
     4    4    6 2  
     5    4    5 1  
     6    5    7 2  
     7    7    8 1  
     8    8    6 1  
     9    1    9 1  
    10    1   10 1  
    11    1   11 1  
    12    2   12 1  
    13    2   13 1  
    14    3   14 1  
    15    3   15 1  
    16    6   16 1  
    17    7   17 1  
    18    8   18 1  
@<TRIPOS>SUBSTRUCTURE
     1 HSM         1

