### 
### Created by X-TOOL on Mon Sep 10 21:12:47 2018
### 

@<TRIPOS>MOLECULE
1qhr_ligand
   39    39     1     0     0
SMALL
GAST_HUCK


@<TRIPOS>ATOM
      1 C1          8.3700   22.2400   50.9960 C.3       1 157        -0.0341
      2 C2          9.1030   23.4970   50.5890 C.3       1 157        -0.0509
      3 C3         10.2230   23.1310   49.6730 C.3       1 157        -0.0503
      4 C4          9.7290   22.4680   48.4120 C.3       1 157         0.0189
      5 C5         10.8360   22.2680   47.4350 C.cat     1 157         0.2044
      6 N6         11.2260   23.2610   46.6640 N.pl3     1 157        -0.2762
      7 N7         11.4170   21.1090   47.2730 N.pl3     1 157        -0.2762
      8 O8          8.5250   23.6270   54.0650 O.2       1 157        -0.3746
      9 O9          5.3320   22.5210   54.4660 O.3       1 157        -0.3913
     10 C10         6.3410   21.6400   52.4660 C.3       1 157         0.0035
     11 C11         5.1020   19.5650   52.5160 C.3       1 157        -0.0502
     12 C12         6.2690   20.2570   51.8370 C.3       1 157        -0.0454
     13 C13         5.8490   21.3700   53.8790 C.3       1 157         0.0604
     14 C14         4.7300   20.3800   53.7430 C.3       1 157        -0.0264
     15 C16         7.7370   22.2450   52.3860 C.3       1 157         0.0355
     16 C15         7.7660   23.5490   53.1390 C.2       1 157         0.1025
     17 H1          9.0870   21.4067   50.9575 H         1 157         0.0293
     18 H2          7.5679   22.0678   50.2633 H         1 157         0.0293
     19 H3          9.5057   23.9951   51.4833 H         1 157         0.0267
     20 H4          8.4103   24.1767   50.0713 H         1 157         0.0267
     21 H5         10.8982   22.4385   50.1969 H         1 157         0.0263
     22 H6         10.7727   24.0444   49.4018 H         1 157         0.0263
     23 H7          8.9564   23.1023   47.9529 H         1 157         0.0281
     24 H8          9.2960   21.4897   48.6677 H         1 157         0.0281
     25 H9         11.9916   23.1194   45.9897 H         1 157         0.3177
     26 H10        10.7656   24.1796   46.7350 H         1 157         0.3177
     27 H11        12.1796   21.0064   46.5883 H         1 157         0.3177
     28 H12        11.1124   20.2979   47.8300 H         1 157         0.3177
     29 H13         4.6020   22.8389   53.9479 H         1 157         0.2098
     30 H14         5.6488   22.3259   51.9558 H         1 157         0.0354
     31 H15         5.3934   18.5478   52.8166 H         1 157         0.0266
     32 H16         4.2457   19.5129   51.8276 H         1 157         0.0266
     33 H17         7.2022   19.7033   52.0172 H         1 157         0.0270
     34 H18         6.0925   20.3356   50.7541 H         1 157         0.0270
     35 H19         6.6634   20.9652   54.4977 H         1 157         0.0598
     36 H20         4.6668   19.7377   54.6338 H         1 157         0.0290
     37 H21         3.7695   20.8948   53.5932 H         1 157         0.0290
     38 H22         8.3784   21.5678   52.9690 H         1 157         0.0532
     39 H23         7.1267   24.3838   52.8557 H         1 157         0.1352
@<TRIPOS>BOND
     1    1    2 1  
     2   15    1 1  
     3    2    3 1  
     4    3    4 1  
     5    4    5 1  
     6    5    6 ar 
     7    5    7 ar 
     8   16    8 2  
     9   13    9 1  
    10   10   12 1  
    11   10   13 1  
    12   15   10 1  
    13   12   11 1  
    14   14   11 1  
    15   13   14 1  
    16   15   16 1  
    17    1   17 1  
    18    1   18 1  
    19    2   19 1  
    20    2   20 1  
    21    3   21 1  
    22    3   22 1  
    23    4   23 1  
    24    4   24 1  
    25    6   25 1  
    26    6   26 1  
    27    7   27 1  
    28    7   28 1  
    29    9   29 1  
    30   10   30 1  
    31   11   31 1  
    32   11   32 1  
    33   12   33 1  
    34   12   34 1  
    35   13   35 1  
    36   14   36 1  
    37   14   37 1  
    38   15   38 1  
    39   16   39 1  
@<TRIPOS>SUBSTRUCTURE
     1 157         1

