### 
### Created by X-TOOL on Fri Nov 18 12:23:58 2016
### 

@<TRIPOS>MOLECULE
1qin_ligand
   51    51     1     0     0
SMALL
GAST_HUCK


@<TRIPOS>ATOM
      1 I           0.4100   -6.3570    3.2680 I         1 GIP        -0.0632
      2 C          -0.2790  -14.9590   14.4160 C.2       1 GIP         0.0846
      3 OT1        -1.1590  -15.4490   15.1660 O.co2     1 GIP        -0.5643
      4 OT2         0.4540  -14.0230   14.8180 O.co2     1 GIP        -0.5643
      5 N          -0.5200  -16.9060   12.8000 N.4       1 GIP         0.2328
      6 CA         -0.0870  -15.4980   12.9660 C.3       1 GIP         0.0304
      7 CB         -0.9160  -14.6570   11.9430 C.3       1 GIP         0.0193
      8 CB2         3.0090  -10.1110   10.1870 C.3       1 GIP         0.0551
      9 SG2         1.8390   -9.1320    9.1600 S.3       1 GIP        -0.0190
     10 CG         -0.4400  -13.1680   11.8020 C.3       1 GIP         0.0441
     11 CD          0.9230  -12.9780   11.1270 C.2       1 GIP         0.1786
     12 OE          1.5750  -13.9460   10.7300 O.2       1 GIP        -0.3969
     13 N2          1.3800  -11.7300   10.9680 N.am      1 GIP        -0.2646
     14 CA2         2.6770  -11.6010   10.2450 C.3       1 GIP         0.1421
     15 C2          3.8860  -12.3630   10.9250 C.2       1 GIP         0.2041
     16 O2          4.0220  -12.3970   12.1590 O.2       1 GIP        -0.3944
     17 N3          4.7910  -12.8070   10.0430 N.am      1 GIP        -0.2721
     18 CA3         6.0840  -13.4160   10.4780 C.3       1 GIP         0.0833
     19 C3          6.8970  -13.7930    9.2230 C.2       1 GIP         0.0570
     20 O31         6.5450  -13.2850    8.1400 O.co2     1 GIP        -0.5669
     21 O32         7.8510  -14.5930    9.3550 O.co2     1 GIP        -0.5669
     22 NE2         1.4380   -6.3690    9.5320 N.am      1 GIP        -0.0785
     23 OF2         1.3950   -5.3090   10.2580 O.3       1 GIP        -0.2422
     24 CD2         1.6180   -7.5660   10.0940 C.2       1 GIP         0.2957
     25 OZ1         1.7610   -7.6980   11.2960 O.2       1 GIP        -0.3703
     26 CG2         1.2300   -6.3400    8.0740 C.ar      1 GIP         0.1048
     27 CL1         2.3150   -6.4570    7.1900 C.ar      1 GIP        -0.0361
     28 CL2        -0.0770   -6.2520    7.6150 C.ar      1 GIP        -0.0361
     29 CM1         2.0510   -6.4680    5.8180 C.ar      1 GIP        -0.0655
     30 CM2        -0.3340   -6.2440    6.2350 C.ar      1 GIP        -0.0655
     31 CZ          0.7300   -6.3630    5.3960 C.ar      1 GIP        -0.0074
     32 H1         -0.3707  -17.1931   11.8454 H         1 GIP         0.2010
     33 H2         -1.4993  -16.9852   13.0254 H         1 GIP         0.2010
     34 H3          0.0155  -17.4971   13.4163 H         1 GIP         0.2010
     35 H4          0.9816  -15.4239   12.7160 H         1 GIP         0.1026
     36 H5         -1.9665  -14.6543   12.2691 H         1 GIP         0.0363
     37 H6         -0.8393  -15.1389   10.9572 H         1 GIP         0.0363
     38 H7          4.0192   -9.9964    9.7671 H         1 GIP         0.0452
     39 H8          2.9902   -9.7109   11.2115 H         1 GIP         0.0452
     40 H9         -0.3837  -12.7321   12.8104 H         1 GIP         0.0505
     41 H10        -1.1914  -12.6255   11.2094 H         1 GIP         0.0505
     42 H11         0.8824  -10.9340   11.3127 H         1 GIP         0.1883
     43 H12         2.5510  -11.9943    9.2255 H         1 GIP         0.0810
     44 H13         4.5956  -12.7286    9.0654 H         1 GIP         0.1873
     45 H14         5.8863  -14.3177   11.0761 H         1 GIP         0.0689
     46 H15         6.6499  -12.6919   11.0824 H         1 GIP         0.0689
     47 H16         1.5537   -5.5413   11.1654 H         1 GIP         0.2577
     48 H17         3.3300   -6.5366    7.5621 H         1 GIP         0.0503
     49 H18        -0.8975   -6.1896    8.3207 H         1 GIP         0.0503
     50 H19         2.8574   -6.5564    5.0989 H         1 GIP         0.0602
     51 H20        -1.3434   -6.1466    5.8520 H         1 GIP         0.0602
@<TRIPOS>BOND
     1   31    1 1  
     2    6    2 1  
     3    2    4 ar 
     4    2    3 ar 
     5    6    5 1  
     6    7    6 1  
     7   10    7 1  
     8   11   10 1  
     9   13   11 am 
    10   11   12 2  
    11   14   13 1  
    12   14   15 1  
    13    8   14 1  
    14    9    8 1  
    15   24    9 1  
    16   24   25 2  
    17   22   24 am 
    18   26   22 1  
    19   22   23 1  
    20   26   28 ar 
    21   27   26 ar 
    22   29   27 ar 
    23   29   31 ar 
    24   31   30 ar 
    25   28   30 ar 
    26   15   17 am 
    27   15   16 2  
    28   17   18 1  
    29   18   19 1  
    30   19   21 ar 
    31   19   20 ar 
    32    5   32 1  
    33    5   33 1  
    34    5   34 1  
    35    6   35 1  
    36    7   36 1  
    37    7   37 1  
    38    8   38 1  
    39    8   39 1  
    40   10   40 1  
    41   10   41 1  
    42   13   42 1  
    43   14   43 1  
    44   17   44 1  
    45   18   45 1  
    46   18   46 1  
    47   23   47 1  
    48   27   48 1  
    49   28   49 1  
    50   29   50 1  
    51   30   51 1  
@<TRIPOS>SUBSTRUCTURE
     1 GIP         1

