### 
### Created by X-TOOL on Sun Sep  9 21:50:02 2018
### 

@<TRIPOS>MOLECULE
1qiw_ligand
   88    90     1     0     0
SMALL
GAST_HUCK


@<TRIPOS>ATOM
      1 H1         29.9239   50.9416   22.7954 H         1 NON         0.0561
      2 H2         31.8747   49.4922   22.2922 H         1 NON         0.0600
      3 H3         31.5520   47.3370   21.0889 H         1 NON         0.0561
      4 H4         29.2651   46.6400   20.3933 H         1 NON         0.0600
      5 H5         27.3178   48.0849   20.8946 H         1 NON         0.0561
      6 H6         26.6831   51.3108   19.6280 H         1 NON         0.0561
      7 H7         24.7402   50.6744   18.2235 H         1 NON         0.0600
      8 H8         22.9990   49.1407   19.1192 H         1 NON         0.0561
      9 H9         23.2106   48.2431   21.4254 H         1 NON         0.0600
     10 H10        25.1518   48.8726   22.8351 H         1 NON         0.0561
     11 H11        27.5429   51.5626   21.9293 H         1 NON         0.0620
     12 H12        27.8955   50.3826   24.2574 H         1 NON         0.0363
     13 H13        26.2761   49.6841   23.9167 H         1 NON         0.0363
     14 H14        26.1262   52.5055   23.4453 H         1 NON         0.0817
     15 H15        26.9695   52.2553   25.0115 H         1 NON         0.0817
     16 H16        24.4088   51.0236   24.3523 H         1 NON         0.2013
     17 H17        24.5373   52.5094   25.0491 H         1 NON         0.2013
     18 H18        26.0266   50.6835   26.5256 H         1 NON         0.0816
     19 H19        24.3565   50.0760   26.2636 H         1 NON         0.0816
     20 H20        23.7920   52.6246   26.9910 H         1 NON         0.0369
     21 H21        25.3448   52.4057   27.8671 H         1 NON         0.0369
     22 H22        23.3627   51.8702   29.2654 H         1 NON         0.0816
     23 H23        24.4653   50.4690   29.0473 H         1 NON         0.0816
     24 H24        22.4612   49.5771   28.7735 H         1 NON         0.2029
     25 H25        22.8659   49.8861   27.2081 H         1 NON         0.2029
     26 H26        21.4292   52.0433   28.0708 H         1 NON         0.0990
     27 H27        19.2620   50.9937   28.6561 H         1 NON         0.0304
     28 H28        20.5254   50.6633   29.8894 H         1 NON         0.0304
     29 H29        20.0605   49.3858   28.7153 H         1 NON         0.0304
     30 H30        20.5878   48.6711   26.5700 H         1 NON         0.0452
     31 H31        20.3122   52.6135   23.5926 H         1 NON         0.0493
     32 H32        21.0147   52.9002   25.9353 H         1 NON         0.0438
     33 H33        18.0552   48.0971   25.2805 H         1 NON         0.0609
     34 H34        19.0821   46.6496   25.5579 H         1 NON         0.0609
     35 H35        18.0066   47.1684   22.7858 H         1 NON         0.0291
     36 H36        16.8883   46.5397   24.0432 H         1 NON         0.0291
     37 H37        18.9055   44.7993   24.4017 H         1 NON         0.0263
     38 H38        19.2216   45.2205   22.6843 H         1 NON         0.0263
     39 H39        17.8055   43.2015   22.8679 H         1 NON         0.0230
     40 H40        16.9065   44.5503   22.0939 H         1 NON         0.0230
     41 H41        16.5905   44.1291   23.8113 H         1 NON         0.0230
     42 H42        20.3944   48.5969   21.6258 H         1 NON         0.0606
     43 H43        21.4941   50.0138   21.5270 H         1 NON         0.0606
     44 H44        20.6369   50.6967   19.5461 H         1 NON         0.0291
     45 H45        18.9464   50.3764   20.0622 H         1 NON         0.0291
     46 H46        19.5407   47.8684   19.6833 H         1 NON         0.0263
     47 H47        20.9435   48.4996   18.7557 H         1 NON         0.0263
     48 H48        19.0457   47.9661   17.2617 H         1 NON         0.0230
     49 H49        19.3971   49.7276   17.2526 H         1 NON         0.0230
     50 H50        17.9943   49.0964   18.1802 H         1 NON         0.0230
     51 C11        28.4700   49.6290   21.8850 C.ar      1 NON        -0.0287
     52 C12        29.7730   50.0050   22.2710 C.ar      1 NON        -0.0581
     53 C13        30.8810   49.1850   21.9870 C.ar      1 NON        -0.0682
     54 C14        30.7000   47.9700   21.3090 C.ar      1 NON        -0.0685
     55 C15        29.4100   47.5780   20.9170 C.ar      1 NON        -0.0682
     56 C16        28.3090   48.3980   21.2020 C.ar      1 NON        -0.0581
     57 C21        26.0680   50.1420   21.3390 C.ar      1 NON        -0.0287
     58 C22        25.9300   50.6410   20.0270 C.ar      1 NON        -0.0581
     59 C23        24.8300   50.2820   19.2300 C.ar      1 NON        -0.0682
     60 C24        23.8480   49.4170   19.7340 C.ar      1 NON        -0.0685
     61 C25        23.9680   48.9120   21.0330 C.ar      1 NON        -0.0682
     62 C26        25.0680   49.2700   21.8300 C.ar      1 NON        -0.0581
     63 C1         27.2670   50.5330   22.2010 C.3       1 NON         0.0303
     64 C2         26.9490   50.5310   23.7170 C.3       1 NON         0.0094
     65 C3         26.2800   51.8070   24.2810 C.3       1 NON        -0.0298
     66 N4         24.9720   51.6050   24.9530 N.4       1 NON         0.2274
     67 C5         24.9910   50.9740   26.2950 C.3       1 NON        -0.0287
     68 C6         24.4820   51.8860   27.4250 C.3       1 NON         0.0276
     69 C7         23.7430   51.1300   28.5460 C.3       1 NON        -0.0273
     70 N8         22.6000   50.3020   28.0870 N.4       1 NON         0.2396
     71 C9         21.2900   50.9690   27.8800 C.3       1 NON         0.0009
     72 C19        20.2070   50.4670   28.8550 C.3       1 NON        -0.0132
     73 C31        20.8550   50.8050   26.4370 C.ar      1 NON        -0.0155
     74 C32        20.5270   49.5350   25.9180 C.ar      1 NON        -0.0345
     75 C33        20.1240   49.3520   24.5840 C.ar      1 NON         0.1137
     76 C34        20.0370   50.4750   23.7030 C.ar      1 NON         0.1126
     77 C35        20.3690   51.7430   24.2360 C.ar      1 NON        -0.0477
     78 C36        20.7690   51.9100   25.5690 C.ar      1 NON        -0.0748
     79 O3         19.8400   48.0490   24.2390 O.3       1 NON        -0.3233
     80 C41        18.7220   47.3640   24.8030 C.3       1 NON         0.0678
     81 C42        17.9400   46.6030   23.7270 C.3       1 NON        -0.0257
     82 C43        18.4550   45.1770   23.4720 C.3       1 NON        -0.0535
     83 C44        17.3620   44.1950   23.0300 C.3       1 NON        -0.0652
     84 O4         19.6490   50.3670   22.3860 O.3       1 NON        -0.3262
     85 C51        20.4510   49.6780   21.4310 C.3       1 NON         0.0664
     86 C52        19.9620   49.9580   20.0030 C.3       1 NON        -0.0259
     87 C53        19.9200   48.7170   19.0950 C.3       1 NON        -0.0535
     88 C54        19.0260   48.8890   17.8600 C.3       1 NON        -0.0652
@<TRIPOS>BOND
     1   52    1 1  
     2   53    2 1  
     3   54    3 1  
     4   55    4 1  
     5   56    5 1  
     6   58    6 1  
     7   59    7 1  
     8   60    8 1  
     9   61    9 1  
    10   62   10 1  
    11   63   11 1  
    12   64   12 1  
    13   64   13 1  
    14   65   14 1  
    15   65   15 1  
    16   66   16 1  
    17   66   17 1  
    18   67   18 1  
    19   67   19 1  
    20   68   20 1  
    21   68   21 1  
    22   69   22 1  
    23   69   23 1  
    24   70   24 1  
    25   70   25 1  
    26   71   26 1  
    27   72   27 1  
    28   72   28 1  
    29   72   29 1  
    30   74   30 1  
    31   77   31 1  
    32   78   32 1  
    33   80   33 1  
    34   80   34 1  
    35   81   35 1  
    36   81   36 1  
    37   82   37 1  
    38   82   38 1  
    39   83   39 1  
    40   83   40 1  
    41   83   41 1  
    42   85   42 1  
    43   85   43 1  
    44   86   44 1  
    45   86   45 1  
    46   87   46 1  
    47   87   47 1  
    48   88   48 1  
    49   88   49 1  
    50   88   50 1  
    51   63   51 1  
    52   51   56 ar 
    53   51   52 ar 
    54   52   53 ar 
    55   53   54 ar 
    56   55   54 ar 
    57   56   55 ar 
    58   64   63 1  
    59   63   57 1  
    60   57   62 ar 
    61   57   58 ar 
    62   58   59 ar 
    63   59   60 ar 
    64   61   60 ar 
    65   62   61 ar 
    66   65   64 1  
    67   66   65 1  
    68   67   66 1  
    69   68   67 1  
    70   69   68 1  
    71   70   69 1  
    72   71   70 1  
    73   73   71 1  
    74   71   72 1  
    75   73   78 ar 
    76   74   73 ar 
    77   75   74 ar 
    78   79   75 1  
    79   75   76 ar 
    80   76   84 1  
    81   76   77 ar 
    82   77   78 ar 
    83   84   85 1  
    84   85   86 1  
    85   86   87 1  
    86   87   88 1  
    87   80   79 1  
    88   81   80 1  
    89   82   81 1  
    90   82   83 1  
@<TRIPOS>SUBSTRUCTURE
     1 NON         1

