### 
### Created by X-TOOL on Tue Oct 16 15:17:20 2018
### 

@<TRIPOS>MOLECULE
1qj1_ligand
   54    56     1     0     0
SMALL
GAST_HUCK


@<TRIPOS>ATOM
      1 C1          8.1220   21.9910   51.5480 C.3       1 MOL        -0.0325
      2 C2          9.0380   23.2180   51.2330 C.3       1 MOL        -0.0508
      3 C3         10.1350   22.9460   50.2440 C.3       1 MOL        -0.0503
      4 C4          9.6610   22.9600   48.8050 C.3       1 MOL         0.0189
      5 C5         10.7350   22.4680   47.8050 C.cat     1 MOL         0.2044
      6 N6         11.3720   21.3060   47.9420 N.pl3     1 MOL        -0.2762
      7 N7         11.0240   23.1710   46.7130 N.pl3     1 MOL        -0.2762
      8 O8          8.6890   23.4960   54.2810 O.2       1 MOL        -0.3745
      9 O9          5.1690   22.9100   55.0940 O.3       1 MOL        -0.3875
     10 C10         5.7670   21.8320   52.9290 C.3       1 MOL         0.0361
     11 C11         3.6850   20.7170   52.8630 C.ar      1 MOL        -0.0383
     12 C12         4.8070   20.9390   52.0860 C.ar      1 MOL        -0.0331
     13 C13         5.2700   21.6670   54.3980 C.3       1 MOL         0.0773
     14 C14         3.8540   21.1070   54.3070 C.3       1 MOL         0.0065
     15 C36         4.7750   20.5070   50.7430 C.ar      1 MOL        -0.0608
     16 C37         3.5850   19.9100   50.2410 C.ar      1 MOL        -0.0378
     17 C38         2.4700   19.7850   51.0770 C.ar      1 MOL        -0.0695
     18 C39         2.5090   20.1940   52.3810 C.ar      1 MOL        -0.0668
     19 C43         3.4010   19.3480   48.8330 C.ar      1 MOL        -0.0337
     20 C44         2.1690   19.5040   48.1730 C.ar      1 MOL        -0.0633
     21 C45         1.9290   19.0140   46.8980 C.ar      1 MOL        -0.0324
     22 C6          2.9290   18.3500   46.2320 C.ar      1 MOL         0.0884
     23 C7          4.1590   18.1640   46.8510 C.ar      1 MOL        -0.0324
     24 C8          4.3950   18.6610   48.1400 C.ar      1 MOL        -0.0633
     25 O54         2.6840   17.8950   44.9580 O.3       1 MOL        -0.3325
     26 C16         7.3390   22.0690   52.8880 C.3       1 MOL         0.0442
     27 C15         7.6950   23.4430   53.6050 C.2       1 MOL         0.1043
     28 H1          8.7564   21.0929   51.5777 H         1 MOL         0.0295
     29 H2          7.3899   21.8960   50.7325 H         1 MOL         0.0295
     30 H3          9.5002   23.5509   52.1740 H         1 MOL         0.0267
     31 H4          8.4057   24.0229   50.8302 H         1 MOL         0.0267
     32 H5         10.5633   21.9563   50.4609 H         1 MOL         0.0263
     33 H6         10.9116   23.7158   50.3633 H         1 MOL         0.0263
     34 H7          9.3813   23.9900   48.5389 H         1 MOL         0.0281
     35 H8          8.7796   22.3072   48.7207 H         1 MOL         0.0281
     36 H9         12.0796   21.0218   47.2496 H         1 MOL         0.3177
     37 H10        11.1569   20.6918   48.7403 H         1 MOL         0.3177
     38 H11        11.7412   22.8311   46.0565 H         1 MOL         0.3177
     39 H12        10.5306   24.0552   46.5241 H         1 MOL         0.3177
     40 H13         6.0224   23.3263   55.1219 H         1 MOL         0.2102
     41 H14         5.4270   22.8329   52.6248 H         1 MOL         0.0501
     42 H15         5.9357   20.9836   54.9456 H         1 MOL         0.0640
     43 H16         3.7419   20.2295   54.9608 H         1 MOL         0.0439
     44 H17         3.1162   21.8720   54.5904 H         1 MOL         0.0439
     45 H18         5.6426   20.6280   50.1044 H         1 MOL         0.0529
     46 H19         1.5564   19.3550   50.6826 H         1 MOL         0.0538
     47 H20         1.6358   20.1081   53.0176 H         1 MOL         0.0538
     48 H21         1.3712   20.0309   48.6838 H         1 MOL         0.0592
     49 H22         0.9606   19.1541   46.4316 H         1 MOL         0.0545
     50 H23         4.9450   17.6284   46.3310 H         1 MOL         0.0545
     51 H24         5.3631   18.5089   48.6034 H         1 MOL         0.0592
     52 H25         1.7937   18.1152   44.7100 H         1 MOL         0.2487
     53 H26         7.7584   21.2627   53.5076 H         1 MOL         0.0553
     54 H27         7.0542   24.3156   53.4870 H         1 MOL         0.1353
@<TRIPOS>BOND
     1    1    2 1  
     2   26    1 1  
     3    2    3 1  
     4    3    4 1  
     5    4    5 1  
     6    5    6 ar 
     7    5    7 ar 
     8   27    8 2  
     9   13    9 1  
    10   10   12 1  
    11   10   13 1  
    12   26   10 1  
    13   12   11 ar 
    14   14   11 1  
    15   11   18 ar 
    16   12   15 ar 
    17   13   14 1  
    18   15   16 ar 
    19   16   17 ar 
    20   16   19 1  
    21   18   17 ar 
    22   19   20 ar 
    23   19   24 ar 
    24   20   21 ar 
    25   21   22 ar 
    26   23   22 ar 
    27   22   25 1  
    28   24   23 ar 
    29   26   27 1  
    30    1   28 1  
    31    1   29 1  
    32    2   30 1  
    33    2   31 1  
    34    3   32 1  
    35    3   33 1  
    36    4   34 1  
    37    4   35 1  
    38    6   36 1  
    39    6   37 1  
    40    7   38 1  
    41    7   39 1  
    42    9   40 1  
    43   10   41 1  
    44   13   42 1  
    45   14   43 1  
    46   14   44 1  
    47   15   45 1  
    48   17   46 1  
    49   18   47 1  
    50   20   48 1  
    51   21   49 1  
    52   23   50 1  
    53   24   51 1  
    54   25   52 1  
    55   26   53 1  
    56   27   54 1  
@<TRIPOS>SUBSTRUCTURE
     1 MOL         1

