### 
### Created by X-TOOL on Tue Oct 16 15:17:21 2018
### 

@<TRIPOS>MOLECULE
1qj6_ligand
   57    59     1     0     0
SMALL
GAST_HUCK


@<TRIPOS>ATOM
      1 C1          8.5680   22.2910   51.5460 C.3       1 MOL        -0.0324
      2 C2          8.5230   23.4650   50.6050 C.3       1 MOL        -0.0508
      3 C3          9.7580   23.4140   49.7310 C.3       1 MOL        -0.0503
      4 C4          9.7700   22.1790   48.8540 C.3       1 MOL         0.0189
      5 C5         10.7460   22.2150   47.6960 C.cat     1 MOL         0.2044
      6 N6         10.9510   23.2750   46.9350 N.pl3     1 MOL        -0.2762
      7 N7         11.3860   21.1270   47.3500 N.pl3     1 MOL        -0.2762
      8 O8          8.1020   23.5910   54.4040 O.2       1 MOL        -0.3745
      9 O9          5.0630   21.5360   54.4810 O.3       1 MOL        -0.3875
     10 C10         6.0740   21.5780   52.1740 C.3       1 MOL         0.0368
     11 C11         4.4870   20.1880   51.1960 C.ar      1 MOL        -0.0366
     12 C12         5.7760   20.6240   51.0170 C.ar      1 MOL        -0.0315
     13 C13         5.2920   20.8350   53.2810 C.3       1 MOL         0.0775
     14 C14         3.9780   20.5450   52.5580 C.3       1 MOL         0.0069
     15 C36         6.4850   20.2010   49.9080 C.ar      1 MOL        -0.0646
     16 C37         5.7930   19.4520   48.9710 C.ar      1 MOL        -0.0670
     17 C38         4.4370   19.1270   49.0900 C.ar      1 MOL        -0.0337
     18 C39         3.7920   19.4580   50.2670 C.ar      1 MOL        -0.0588
     19 C43         3.6720   18.4980   47.9340 C.ar      1 MOL        -0.0328
     20 C44         2.3830   18.9620   47.6410 C.ar      1 MOL        -0.0277
     21 C45         1.6680   18.4860   46.5570 C.ar      1 MOL         0.0901
     22 C24         2.2510   17.5150   45.7470 C.ar      1 MOL        -0.0338
     23 C25         3.5160   17.0110   46.0300 C.ar      1 MOL        -0.0707
     24 C6          4.2250   17.5000   47.1200 C.ar      1 MOL        -0.0667
     25 C53         0.3780   19.8610   45.1670 C.3       1 MOL         0.0593
     26 O54         0.3860   18.9910   46.2900 O.3       1 MOL        -0.3216
     27 C16         7.4670   22.1570   52.5870 C.3       1 MOL         0.0445
     28 C15         7.3650   23.4300   53.4780 C.2       1 MOL         0.1044
     29 H1          9.5236   22.3449   52.0882 H         1 MOL         0.0295
     30 H2          8.5465   21.3796   50.9305 H         1 MOL         0.0295
     31 H3          8.5111   24.4031   51.1793 H         1 MOL         0.0267
     32 H4          7.6204   23.4068   49.9789 H         1 MOL         0.0267
     33 H5         10.6503   23.4037   50.3742 H         1 MOL         0.0263
     34 H6          9.7786   24.3074   49.0896 H         1 MOL         0.0263
     35 H7          8.7589   22.0454   48.4418 H         1 MOL         0.0281
     36 H8         10.0252   21.3159   49.4864 H         1 MOL         0.0281
     37 H9         11.6309   23.2307   46.1625 H         1 MOL         0.3177
     38 H10        10.4310   24.1459   47.1141 H         1 MOL         0.3177
     39 H11        12.0502   21.1484   46.5631 H         1 MOL         0.3177
     40 H12        11.2254   20.2494   47.8646 H         1 MOL         0.3177
     41 H13         4.5621   22.3219   54.2967 H         1 MOL         0.2102
     42 H14         5.5130   22.4939   51.9368 H         1 MOL         0.0505
     43 H15         5.8128   19.9001   53.5354 H         1 MOL         0.0641
     44 H16         3.4363   19.7072   53.0213 H         1 MOL         0.0438
     45 H17         3.3269   21.4311   52.5285 H         1 MOL         0.0438
     46 H18         7.5333   20.4442   49.7780 H         1 MOL         0.0542
     47 H19         6.3305   19.0985   48.0986 H         1 MOL         0.0553
     48 H20         2.7688   19.1500   50.4496 H         1 MOL         0.0544
     49 H21         1.9344   19.7136   48.2805 H         1 MOL         0.0535
     50 H22         1.7107   17.1463   44.8826 H         1 MOL         0.0537
     51 H23         3.9471   16.2395   45.4024 H         1 MOL         0.0588
     52 H24         5.2108   17.1077   47.3421 H         1 MOL         0.0523
     53 H25        -0.6440   20.2306   44.9968 H         1 MOL         0.0577
     54 H26         0.7231   19.3142   44.2771 H         1 MOL         0.0577
     55 H27         1.0486   20.7119   45.3575 H         1 MOL         0.0577
     56 H28         7.8589   21.3832   53.2635 H         1 MOL         0.0554
     57 H29         6.6115   24.1836   53.2538 H         1 MOL         0.1353
@<TRIPOS>BOND
     1    1    2 1  
     2   27    1 1  
     3    2    3 1  
     4    3    4 1  
     5    4    5 1  
     6    5    6 ar 
     7    5    7 ar 
     8   28    8 2  
     9   13    9 1  
    10   10   12 1  
    11   10   13 1  
    12   27   10 1  
    13   12   11 ar 
    14   14   11 1  
    15   11   18 ar 
    16   12   15 ar 
    17   13   14 1  
    18   15   16 ar 
    19   16   17 ar 
    20   18   17 ar 
    21   17   19 1  
    22   19   20 ar 
    23   19   24 ar 
    24   20   21 ar 
    25   21   22 ar 
    26   21   26 1  
    27   23   22 ar 
    28   24   23 ar 
    29   26   25 1  
    30   27   28 1  
    31    1   29 1  
    32    1   30 1  
    33    2   31 1  
    34    2   32 1  
    35    3   33 1  
    36    3   34 1  
    37    4   35 1  
    38    4   36 1  
    39    6   37 1  
    40    6   38 1  
    41    7   39 1  
    42    7   40 1  
    43    9   41 1  
    44   10   42 1  
    45   13   43 1  
    46   14   44 1  
    47   14   45 1  
    48   15   46 1  
    49   16   47 1  
    50   18   48 1  
    51   20   49 1  
    52   22   50 1  
    53   23   51 1  
    54   24   52 1  
    55   25   53 1  
    56   25   54 1  
    57   25   55 1  
    58   27   56 1  
    59   28   57 1  
@<TRIPOS>SUBSTRUCTURE
     1 MOL         1

