### 
### Created by X-TOOL on Tue Oct 16 15:17:20 2018
### 

@<TRIPOS>MOLECULE
1qj7_ligand
   69    71     1     0     0
SMALL
GAST_HUCK


@<TRIPOS>ATOM
      1 N1         -0.0220   18.9140   46.0580 N.am      1 GR1        -0.2729
      2 C7          0.4920   19.1970   44.7140 C.3       1 GR1         0.0306
      3 O1          0.0380   17.7300   47.9150 O.2       1 GR1        -0.3844
      4 C8          4.2010   18.4430   48.0310 C.ar      1 GR1        -0.0182
      5 C9          4.8540   17.5470   47.1820 C.ar      1 GR1        -0.0516
      6 C17         8.9150   22.3590   51.3240 C.3       1 GR1        -0.0324
      7 C18         8.5070   23.3770   50.2730 C.3       1 GR1        -0.0508
      8 C19         9.5770   23.5050   49.1860 C.3       1 GR1        -0.0503
      9 C20        10.4240   22.2550   49.0040 C.3       1 GR1         0.0189
     10 C21        11.1670   22.1630   47.7180 C.cat     1 GR1         0.2044
     11 N2         11.7540   21.0040   47.4630 N.pl3     1 GR1        -0.2762
     12 N3         11.2610   23.1960   46.8330 N.pl3     1 GR1        -0.2762
     13 O2          8.9630   23.5140   53.9740 O.2       1 GR1        -0.3745
     14 O3          5.2750   21.9470   54.4700 O.3       1 GR1        -0.3875
     15 C10         6.4330   21.8150   52.1000 C.3       1 GR1         0.0368
     16 C11         4.8280   20.3780   51.1870 C.ar      1 GR1        -0.0367
     17 C12         6.0970   20.8660   50.9740 C.ar      1 GR1        -0.0316
     18 C13         5.5880   21.1700   53.2740 C.3       1 GR1         0.0775
     19 C14         4.2960   20.7630   52.5390 C.3       1 GR1         0.0069
     20 C22         6.8270   20.4890   49.8590 C.ar      1 GR1        -0.0647
     21 C23         6.2010   19.6610   48.9460 C.ar      1 GR1        -0.0668
     22 C24         4.8790   19.2240   49.1130 C.ar      1 GR1        -0.0300
     23 C25         4.1860   19.5670   50.2750 C.ar      1 GR1        -0.0585
     24 C3          4.1430   16.9000   46.1710 C.ar      1 GR1        -0.0568
     25 C4          2.7770   17.1270   46.0010 C.ar      1 GR1        -0.0429
     26 C26         0.6490   18.1920   46.9640 C.2       1 GR1         0.2073
     27 C5          2.1340   18.0010   46.8700 C.ar      1 GR1         0.0497
     28 C6          2.8500   18.6460   47.8590 C.ar      1 GR1        -0.0358
     29 C27         1.3460   20.4410   44.7030 C.3       1 GR1        -0.0447
     30 C1         -1.2930   19.5070   46.5470 C.3       1 GR1         0.0306
     31 C2         -2.4480   18.5390   46.8690 C.3       1 GR1        -0.0447
     32 C16         7.9020   22.1530   52.4290 C.3       1 GR1         0.0445
     33 C15         7.9780   23.4190   53.2990 C.2       1 GR1         0.1044
     34 H1         -0.3566   19.3392   44.0287 H         1 GR1         0.0519
     35 H2          1.0979   18.3437   44.3753 H         1 GR1         0.0519
     36 H3          5.9132   17.3542   47.3085 H         1 GR1         0.0649
     37 H4          9.8570   22.6964   51.7809 H         1 GR1         0.0295
     38 H5          9.0761   21.3935   50.8221 H         1 GR1         0.0295
     39 H6          8.3664   24.3553   50.7558 H         1 GR1         0.0267
     40 H7          7.5616   23.0570   49.8106 H         1 GR1         0.0267
     41 H8         10.2432   24.3388   49.4524 H         1 GR1         0.0263
     42 H9          9.0765   23.7260   48.2317 H         1 GR1         0.0263
     43 H10         9.7583   21.3821   49.0733 H         1 GR1         0.0281
     44 H11        11.1585   22.2218   49.8222 H         1 GR1         0.0281
     45 H12        12.2840   20.8764   46.5891 H         1 GR1         0.3177
     46 H13        11.6807   20.2299   48.1385 H         1 GR1         0.3177
     47 H14        11.7888   23.0769   45.9566 H         1 GR1         0.3177
     48 H15        10.8042   24.0954   47.0409 H         1 GR1         0.3177
     49 H16         4.7736   22.7158   54.2246 H         1 GR1         0.2102
     50 H17         5.9825   22.7868   51.8495 H         1 GR1         0.0505
     51 H18         6.1212   20.2726   53.6209 H         1 GR1         0.0641
     52 H19         3.8032   19.9131   53.0337 H         1 GR1         0.0438
     53 H20         3.5917   21.6050   52.4687 H         1 GR1         0.0438
     54 H21         7.8454   20.8286   49.7087 H         1 GR1         0.0542
     55 H22         6.7516   19.3381   48.0699 H         1 GR1         0.0553
     56 H23         3.1788   19.2086   50.4542 H         1 GR1         0.0543
     57 H24         4.6581   16.2127   45.5096 H         1 GR1         0.0626
     58 H25         2.2284   16.6321   45.2078 H         1 GR1         0.0661
     59 H26         2.3331   19.3326   48.5197 H         1 GR1         0.0668
     60 H27         1.7143   20.6239   43.6827 H         1 GR1         0.0249
     61 H28         2.2004   20.3053   45.3824 H         1 GR1         0.0249
     62 H29         0.7459   21.3007   45.0357 H         1 GR1         0.0249
     63 H30        -1.6514   20.2032   45.7744 H         1 GR1         0.0519
     64 H31        -1.0644   20.0657   47.4665 H         1 GR1         0.0519
     65 H32        -3.3199   19.1117   47.2179 H         1 GR1         0.0249
     66 H33        -2.1309   17.8385   47.6555 H         1 GR1         0.0249
     67 H34        -2.7178   17.9759   45.9634 H         1 GR1         0.0249
     68 H35         8.2677   21.3034   53.0243 H         1 GR1         0.0554
     69 H36         7.1934   24.1742   53.3012 H         1 GR1         0.1353
@<TRIPOS>BOND
     1    1    2 1  
     2   26    1 am 
     3    1   30 1  
     4    2   29 1  
     5   26    3 2  
     6    4    5 ar 
     7   22    4 1  
     8    4   28 ar 
     9    5   24 ar 
    10    6    7 1  
    11   32    6 1  
    12    7    8 1  
    13    8    9 1  
    14    9   10 1  
    15   10   11 ar 
    16   10   12 ar 
    17   33   13 2  
    18   18   14 1  
    19   15   17 1  
    20   15   18 1  
    21   32   15 1  
    22   17   16 ar 
    23   19   16 1  
    24   16   23 ar 
    25   17   20 ar 
    26   18   19 1  
    27   20   21 ar 
    28   21   22 ar 
    29   23   22 ar 
    30   24   25 ar 
    31   27   25 ar 
    32   27   26 1  
    33   28   27 ar 
    34   30   31 1  
    35   32   33 1  
    36    2   34 1  
    37    2   35 1  
    38    5   36 1  
    39    6   37 1  
    40    6   38 1  
    41    7   39 1  
    42    7   40 1  
    43    8   41 1  
    44    8   42 1  
    45    9   43 1  
    46    9   44 1  
    47   11   45 1  
    48   11   46 1  
    49   12   47 1  
    50   12   48 1  
    51   14   49 1  
    52   15   50 1  
    53   18   51 1  
    54   19   52 1  
    55   19   53 1  
    56   20   54 1  
    57   21   55 1  
    58   23   56 1  
    59   24   57 1  
    60   25   58 1  
    61   28   59 1  
    62   29   60 1  
    63   29   61 1  
    64   29   62 1  
    65   30   63 1  
    66   30   64 1  
    67   31   65 1  
    68   31   66 1  
    69   31   67 1  
    70   32   68 1  
    71   33   69 1  
@<TRIPOS>SUBSTRUCTURE
     1 GR1         1

