### 
### Created by X-TOOL on Mon Sep 10 21:12:46 2018
### 

@<TRIPOS>MOLECULE
1qka_ligand
   71    70     1     0     0
SMALL
GAST_HUCK


@<TRIPOS>ATOM
      1 N           6.8330   16.6540   15.2600 N.4       1 LYS         0.2379
      2 CA          6.4060   17.9620   14.6680 C.3       1 LYS         0.0650
      3 C           5.1830   18.4930   15.4130 C.2       1 LYS         0.2267
      4 O           4.4460   17.6900   16.0100 O.2       1 LYS        -0.3907
      5 CB          6.0750   17.8590   13.1660 C.3       1 LYS         0.0080
      6 CG          5.2490   16.6220   12.7870 C.3       1 LYS        -0.0410
      7 CD          5.2030   16.5520   11.2420 C.3       1 LYS        -0.0123
      8 CE          6.4910   15.8840   10.7430 C.3       1 LYS        -0.0354
      9 NZ          6.4390   14.4200   11.0120 N.4       1 LYS         0.2185
     10 N           5.0260   19.8010   15.4630 N.am      1 ARG        -0.2610
     11 CA          3.9390   20.4660   16.1150 C.3       1 ARG         0.1312
     12 C           2.5920   20.2950   15.3940 C.2       1 ARG         0.2033
     13 O           2.5030   20.5640   14.1820 O.2       1 ARG        -0.3944
     14 CB          4.1160   22.0070   16.1970 C.3       1 ARG        -0.0092
     15 CG          5.3820   22.4170   16.9860 C.3       1 ARG        -0.0156
     16 CD          5.2560   22.2330   18.5070 C.3       1 ARG         0.0627
     17 NE          6.5810   22.4550   19.0930 N.pl3     1 ARG        -0.2723
     18 CZ          7.1360   21.9310   20.1800 C.cat     1 ARG         0.2882
     19 NH1         6.4640   21.0970   20.9560 N.pl3     1 ARG        -0.2849
     20 NH2         8.4120   22.2230   20.4850 N.pl3     1 ARG        -0.2849
     21 N           1.5850   20.0240   16.2150 N.am      1 LYS        -0.2695
     22 CA          0.2130   19.9480   15.7330 C.3       1 LYS         0.0944
     23 C          -0.7760   20.5460   16.7500 C.2       1 LYS         0.0601
     24 O          -1.9930   20.3050   16.6110 O.co2     1 LYS        -0.5666
     25 CB         -0.2890   18.5670   15.3350 C.3       1 LYS        -0.0177
     26 CG         -1.3710   18.7780   14.2310 C.3       1 LYS        -0.0446
     27 CD         -1.9800   17.4510   13.8700 C.3       1 LYS        -0.0125
     28 CE         -3.0850   17.4940   12.8500 C.3       1 LYS        -0.0354
     29 NZ         -3.9270   18.7030   12.7750 N.4       1 LYS         0.2185
     30 OXT        -0.4090   21.3940   17.5910 O.co2     1 LYS        -0.5666
     31 H1          7.6400   16.3085   14.7646 H         1 LYS         0.2015
     32 H2          6.0803   15.9881   15.1818 H         1 LYS         0.2015
     33 H3          7.0660   16.7851   16.2319 H         1 LYS         0.2015
     34 H4          7.2330   18.6771   14.7892 H         1 LYS         0.1098
     35 H5          7.0210   17.8269   12.6057 H         1 LYS         0.0346
     36 H6          5.5070   18.7552   12.8757 H         1 LYS         0.0346
     37 H7          4.2294   16.7128   13.1897 H         1 LYS         0.0270
     38 H8          5.7232   15.7152   13.1905 H         1 LYS         0.0270
     39 H9          5.1280   17.5680   10.8272 H         1 LYS         0.0317
     40 H10         4.3318   15.9607   10.9237 H         1 LYS         0.0317
     41 H11         7.3547   16.3206   11.2659 H         1 LYS         0.0813
     42 H12         6.5939   16.0527    9.6609 H         1 LYS         0.0813
     43 H13         7.2876   13.9874   10.6820 H         1 LYS         0.1994
     44 H14         5.6486   14.0181   10.5326 H         1 LYS         0.1994
     45 H15         6.3457   14.2636   12.0034 H         1 LYS         0.1994
     46 H16         5.7154   20.3690   15.0134 H         1 ARG         0.1884
     47 H17         3.8628   20.0532   17.1317 H         1 ARG         0.0800
     48 H18         3.2350   22.4372   16.6956 H         1 ARG         0.0313
     49 H19         4.1917   22.4082   15.1756 H         1 ARG         0.0313
     50 H20         5.5888   23.4779   16.7817 H         1 ARG         0.0301
     51 H21         6.2242   21.8044   16.6318 H         1 ARG         0.0301
     52 H22         4.9119   21.2132   18.7340 H         1 ARG         0.0689
     53 H23         4.5392   22.9611   18.9145 H         1 ARG         0.0689
     54 H24         7.1754   23.1226   18.5812 H         1 ARG         0.2642
     55 H25         6.9111   20.7006   21.7950 H         1 ARG         0.2615
     56 H26         5.4936   20.8439   20.7213 H         1 ARG         0.2615
     57 H27         8.9484   22.8707   19.8903 H         1 ARG         0.2615
     58 H28         8.8535   21.7990   21.3134 H         1 ARG         0.2615
     59 H29         1.7724   19.8687   17.1849 H         1 LYS         0.1875
     60 H30         0.1750   20.5700   14.8265 H         1 LYS         0.0726
     61 H31        -0.7308   18.0599   16.2054 H         1 LYS         0.0305
     62 H32         0.5408   17.9622   14.9405 H         1 LYS         0.0305
     63 H33        -0.9043   19.2225   13.3396 H         1 LYS         0.0269
     64 H34        -2.1547   19.4511   14.6088 H         1 LYS         0.0269
     65 H35        -2.3866   17.0048   14.7895 H         1 LYS         0.0317
     66 H36        -1.1796   16.8089   13.4737 H         1 LYS         0.0317
     67 H37        -3.7531   16.6455   13.0590 H         1 LYS         0.0813
     68 H38        -2.6203   17.3601   11.8620 H         1 LYS         0.0813
     69 H39        -4.6186   18.5864   12.0510 H         1 LYS         0.1994
     70 H40        -3.3499   19.5018   12.5629 H         1 LYS         0.1994
     71 H41        -4.3879   18.8469   13.6598 H         1 LYS         0.1994
@<TRIPOS>BOND
     1    2    1 1  
     2    2    5 1  
     3    3    2 1  
     4    3    4 2  
     5    5    6 1  
     6    6    7 1  
     7    7    8 1  
     8    8    9 1  
     9   11   10 1  
    10   11   14 1  
    11   12   11 1  
    12   12   13 2  
    13   14   15 1  
    14   15   16 1  
    15   16   17 1  
    16   17   18 ar 
    17   18   20 ar 
    18   18   19 ar 
    19   10    3 am 
    20   21   22 1  
    21   22   25 1  
    22   22   23 1  
    23   23   24 ar 
    24   23   30 ar 
    25   25   26 1  
    26   26   27 1  
    27   27   28 1  
    28   28   29 1  
    29   12   21 am 
    30    1   31 1  
    31    1   32 1  
    32    1   33 1  
    33    2   34 1  
    34    5   35 1  
    35    5   36 1  
    36    6   37 1  
    37    6   38 1  
    38    7   39 1  
    39    7   40 1  
    40    8   41 1  
    41    8   42 1  
    42    9   43 1  
    43    9   44 1  
    44    9   45 1  
    45   10   46 1  
    46   11   47 1  
    47   14   48 1  
    48   14   49 1  
    49   15   50 1  
    50   15   51 1  
    51   16   52 1  
    52   16   53 1  
    53   17   54 1  
    54   19   55 1  
    55   19   56 1  
    56   20   57 1  
    57   20   58 1  
    58   21   59 1  
    59   22   60 1  
    60   25   61 1  
    61   25   62 1  
    62   26   63 1  
    63   26   64 1  
    64   27   65 1  
    65   27   66 1  
    66   28   67 1  
    67   28   68 1  
    68   29   69 1  
    69   29   70 1  
    70   29   71 1  
@<TRIPOS>SUBSTRUCTURE
     1 LYS         1

