### 
### Created by X-TOOL on Mon Sep 10 21:12:47 2018
### 

@<TRIPOS>MOLECULE
1qkb_ligand
   63    62     1     0     0
SMALL
GAST_HUCK


@<TRIPOS>ATOM
      1 N           6.9540   16.5470   15.1220 N.4       1 LYS         0.2379
      2 CA          6.4560   17.8430   14.5550 C.3       1 LYS         0.0650
      3 C           5.2380   18.3380   15.3310 C.2       1 LYS         0.2267
      4 O           4.4820   17.5120   15.8490 O.2       1 LYS        -0.3907
      5 CB          6.1980   17.7410   13.0490 C.3       1 LYS         0.0080
      6 CG          5.2540   16.6210   12.6200 C.3       1 LYS        -0.0410
      7 CD          5.1780   16.5400   11.0930 C.3       1 LYS        -0.0123
      8 CE          6.4350   15.8900   10.4940 C.3       1 LYS        -0.0354
      9 NZ          6.5840   14.4590   10.9350 N.4       1 LYS         0.2185
     10 N           5.0710   19.6460   15.4290 N.am      1 VAL        -0.2608
     11 CA          3.9410   20.2190   16.1820 C.3       1 VAL         0.1333
     12 C           2.6510   20.1800   15.3760 C.2       1 VAL         0.2036
     13 O           2.6630   20.4870   14.1830 O.2       1 VAL        -0.3944
     14 CB          4.2440   21.6680   16.5990 C.3       1 VAL        -0.0063
     15 CG1         3.1460   22.2740   17.4450 C.3       1 VAL        -0.0584
     16 CG2         5.5760   21.7060   17.3710 C.3       1 VAL        -0.0584
     17 N           1.5590   19.8180   16.0730 N.am      1 LYS        -0.2695
     18 CA          0.2770   19.7990   15.3790 C.3       1 LYS         0.0944
     19 C          -0.7350   20.6380   16.1740 C.2       1 LYS         0.0601
     20 O          -1.6780   21.1460   15.5200 O.co2     1 LYS        -0.5666
     21 CB         -0.2820   18.3680   15.2540 C.3       1 LYS        -0.0177
     22 CG         -1.4010   18.4250   14.1870 C.3       1 LYS        -0.0446
     23 CD         -2.1110   17.0860   14.1500 C.3       1 LYS        -0.0125
     24 CE         -3.4420   17.2520   13.4300 C.3       1 LYS        -0.0354
     25 NZ         -3.1130   17.0310   11.9760 N.4       1 LYS         0.2185
     26 OXT        -0.5830   20.7290   17.4140 O.co2     1 LYS        -0.5666
     27 H1          7.7569   16.2371   14.5972 H         1 LYS         0.2015
     28 H2          6.2257   15.8526   15.0632 H         1 LYS         0.2015
     29 H3          7.2142   16.6802   16.0867 H         1 LYS         0.2015
     30 H4          7.2528   18.5887   14.6933 H         1 LYS         0.1098
     31 H5          7.1646   17.5798   12.5494 H         1 LYS         0.0346
     32 H6          5.7664   18.6955   12.7134 H         1 LYS         0.0346
     33 H7          4.2498   16.8198   13.0224 H         1 LYS         0.0270
     34 H8          5.6246   15.6637   13.0153 H         1 LYS         0.0270
     35 H9          5.0749   17.5571   10.6869 H         1 LYS         0.0317
     36 H10         4.2989   15.9418   10.8112 H         1 LYS         0.0317
     37 H11         7.3195   16.4574   10.8192 H         1 LYS         0.0813
     38 H12         6.3635   15.9195    9.3967 H         1 LYS         0.0813
     39 H13         7.4163   14.0658   10.5243 H         1 LYS         0.1994
     40 H14         5.7798   13.9298   10.6363 H         1 LYS         0.1994
     41 H15         6.6558   14.4228   11.9398 H         1 LYS         0.1994
     42 H16         5.7241   20.2584   14.9835 H         1 VAL         0.1885
     43 H17         3.7976   19.6174   17.0917 H         1 VAL         0.0802
     44 H18         4.3460   22.2738   15.6865 H         1 VAL         0.0343
     45 H19         3.4164   23.3062   17.7121 H         1 VAL         0.0234
     46 H20         3.0189   21.6794   18.3616 H         1 VAL         0.0234
     47 H21         2.2044   22.2771   16.8764 H         1 VAL         0.0234
     48 H22         6.3711   21.2645   16.7522 H         1 VAL         0.0234
     49 H23         5.4758   21.1316   18.3037 H         1 VAL         0.0234
     50 H24         5.8326   22.7490   17.6084 H         1 VAL         0.0234
     51 H25         1.6246   19.5691   17.0393 H         1 LYS         0.1875
     52 H26         0.4066   20.2265   14.3738 H         1 LYS         0.0726
     53 H27        -0.6932   18.0351   16.2184 H         1 LYS         0.0305
     54 H28         0.5118   17.6764   14.9355 H         1 LYS         0.0305
     55 H29        -0.9613   18.6374   13.2013 H         1 LYS         0.0269
     56 H30        -2.1190   19.2169   14.4465 H         1 LYS         0.0269
     57 H31        -2.2884   16.7338   15.1769 H         1 LYS         0.0317
     58 H32        -1.4900   16.3537   13.6133 H         1 LYS         0.0317
     59 H33        -3.8465   18.2626   13.5881 H         1 LYS         0.0813
     60 H34        -4.1703   16.5064   13.7817 H         1 LYS         0.0813
     61 H35        -3.9511   17.1246   11.4239 H         1 LYS         0.1994
     62 H36        -2.7323   16.1056   11.8545 H         1 LYS         0.1994
     63 H37        -2.4356   17.7149   11.6770 H         1 LYS         0.1994
@<TRIPOS>BOND
     1    2    1 1  
     2    2    5 1  
     3    3    2 1  
     4    3    4 2  
     5    5    6 1  
     6    6    7 1  
     7    7    8 1  
     8    8    9 1  
     9   11   10 1  
    10   11   14 1  
    11   12   11 1  
    12   12   13 2  
    13   14   16 1  
    14   14   15 1  
    15   10    3 am 
    16   17   18 1  
    17   18   21 1  
    18   18   19 1  
    19   19   20 ar 
    20   19   26 ar 
    21   21   22 1  
    22   22   23 1  
    23   23   24 1  
    24   24   25 1  
    25   12   17 am 
    26    1   27 1  
    27    1   28 1  
    28    1   29 1  
    29    2   30 1  
    30    5   31 1  
    31    5   32 1  
    32    6   33 1  
    33    6   34 1  
    34    7   35 1  
    35    7   36 1  
    36    8   37 1  
    37    8   38 1  
    38    9   39 1  
    39    9   40 1  
    40    9   41 1  
    41   10   42 1  
    42   11   43 1  
    43   14   44 1  
    44   15   45 1  
    45   15   46 1  
    46   15   47 1  
    47   16   48 1  
    48   16   49 1  
    49   16   50 1  
    50   17   51 1  
    51   18   52 1  
    52   21   53 1  
    53   21   54 1  
    54   22   55 1  
    55   22   56 1  
    56   23   57 1  
    57   23   58 1  
    58   24   59 1  
    59   24   60 1  
    60   25   61 1  
    61   25   62 1  
    62   25   63 1  
@<TRIPOS>SUBSTRUCTURE
     1 LYS         1

