### 
### Created by X-TOOL on Mon Sep 10 21:12:47 2018
### 

@<TRIPOS>MOLECULE
1qkn_ligand
   62    66     1     0     0
SMALL
GAST_HUCK


@<TRIPOS>ATOM
      1 C1         16.9310   29.5250    8.7290 C.ar      1 RAL        -0.0711
      2 C2         15.8390   30.1280    8.1030 C.ar      1 RAL        -0.0408
      3 C3         15.1550   31.1320    8.7770 C.ar      1 RAL         0.0805
      4 O3         14.0660   31.7180    8.1660 O.3       1 RAL        -0.3362
      5 C4         15.5780   31.5290   10.0650 C.ar      1 RAL        -0.0212
      6 C5         16.6460   30.9470   10.6570 C.ar      1 RAL         0.0320
      7 S6         17.3610   31.2370   12.1470 S.3       1 RAL        -0.0307
      8 C7         18.5990   30.1110   12.0670 C.2       1 RAL         0.0508
      9 C8         19.6040   29.8810   13.1400 C.ar      1 RAL        -0.0085
     10 C9         19.2300   29.5540   14.4130 C.ar      1 RAL        -0.0573
     11 C10        20.1620   29.3210   15.4300 C.ar      1 RAL        -0.0288
     12 C11        21.5120   29.4270   15.1430 C.ar      1 RAL         0.0923
     13 O11        22.4470   29.2040   16.1390 O.3       1 RAL        -0.3300
     14 C12        21.9140   29.7600   13.8570 C.ar      1 RAL        -0.0288
     15 C13        20.9610   29.9850   12.8660 C.ar      1 RAL        -0.0573
     16 C14        17.3510   29.9080    9.9890 C.ar      1 RAL        -0.0190
     17 C15        18.4770   29.4450   10.8130 C.2       1 RAL         0.0314
     18 C16        19.3470   28.4220   10.4480 C.2       1 RAL         0.1326
     19 O16        19.2450   27.3330   11.0420 O.2       1 RAL        -0.3880
     20 C17        20.3630   28.5880    9.4140 C.ar      1 RAL         0.0176
     21 C18        21.1230   27.5080    8.9700 C.ar      1 RAL        -0.0525
     22 C19        22.1230   27.6120    7.9710 C.ar      1 RAL        -0.0269
     23 C20        22.3250   28.8770    7.4450 C.ar      1 RAL         0.0970
     24 C21        21.5720   29.9490    7.8960 C.ar      1 RAL        -0.0269
     25 C22        20.6060   29.8300    8.8500 C.ar      1 RAL        -0.0525
     26 O23        23.2300   29.2790    6.4660 O.3       1 RAL        -0.3091
     27 C24        23.4640   28.3530    5.4320 C.3       1 RAL         0.1114
     28 C25        24.7760   28.7900    4.7940 C.3       1 RAL        -0.0032
     29 N26        24.7430   29.7120    3.6430 N.4       1 RAL         0.2372
     30 C27        26.0710   29.5940    2.9850 C.3       1 RAL        -0.0318
     31 C28        26.1790   30.4500    1.7240 C.3       1 RAL        -0.0123
     32 C29        25.9590   31.9320    2.0940 C.3       1 RAL        -0.0434
     33 C30        24.6040   32.0420    2.7970 C.3       1 RAL        -0.0123
     34 C31        24.5390   31.1170    4.0200 C.3       1 RAL        -0.0318
     35 H1         17.4643   28.7348    8.2130 H         1 RAL         0.0549
     36 H2         15.5307   29.8191    7.1107 H         1 RAL         0.0502
     37 H3         14.3402   32.1191    7.3497 H         1 RAL         0.2474
     38 H4         15.0389   32.3115   10.5866 H         1 RAL         0.0485
     39 H5         18.1738   29.4722   14.6429 H         1 RAL         0.0618
     40 H6         19.8315   29.0610   16.4291 H         1 RAL         0.0556
     41 H7         22.3494   28.3193   16.4711 H         1 RAL         0.2502
     42 H8         22.9692   29.8450   13.6237 H         1 RAL         0.0556
     43 H9         21.2843   30.2455   11.8647 H         1 RAL         0.0618
     44 H10        20.9396   26.5356    9.4125 H         1 RAL         0.0641
     45 H11        22.6951   26.7533    7.6388 H         1 RAL         0.0557
     46 H12        21.7600   30.9280    7.4702 H         1 RAL         0.0557
     47 H13        20.0349   30.6963    9.1636 H         1 RAL         0.0641
     48 H14        22.6479   28.3832    4.6951 H         1 RAL         0.0670
     49 H15        23.5532   27.3349    5.8388 H         1 RAL         0.0670
     50 H16        25.2911   27.8772    4.4602 H         1 RAL         0.0841
     51 H17        25.3692   29.2789    5.5808 H         1 RAL         0.0841
     52 H18        24.0094   29.4325    3.0107 H         1 RAL         0.2034
     53 H19        26.2367   28.5415    2.7117 H         1 RAL         0.0814
     54 H20        26.8465   29.9147    3.6961 H         1 RAL         0.0814
     55 H21        25.4141   30.1347    0.9991 H         1 RAL         0.0317
     56 H22        27.1779   30.3264    1.2802 H         1 RAL         0.0317
     57 H23        25.9594   32.5492    1.1835 H         1 RAL         0.0269
     58 H24        26.7590   32.2723    2.7680 H         1 RAL         0.0269
     59 H25        23.8090   31.7602    2.0909 H         1 RAL         0.0317
     60 H26        24.4524   33.0812    3.1242 H         1 RAL         0.0317
     61 H27        25.3217   31.4129    4.7340 H         1 RAL         0.0814
     62 H28        23.5519   31.2203    4.4943 H         1 RAL         0.0814
@<TRIPOS>BOND
     1    1    2 ar 
     2    1   16 ar 
     3    2    3 ar 
     4    3    4 1  
     5    3    5 ar 
     6    5    6 ar 
     7    6    7 1  
     8    6   16 ar 
     9    7    8 1  
    10    8    9 1  
    11    8   17 2  
    12    9   10 ar 
    13    9   15 ar 
    14   10   11 ar 
    15   11   12 ar 
    16   12   13 1  
    17   12   14 ar 
    18   14   15 ar 
    19   16   17 1  
    20   17   18 1  
    21   18   19 2  
    22   18   20 1  
    23   20   21 ar 
    24   20   25 ar 
    25   21   22 ar 
    26   22   23 ar 
    27   23   24 ar 
    28   23   26 1  
    29   24   25 ar 
    30   26   27 1  
    31   27   28 1  
    32   28   29 1  
    33   29   30 1  
    34   29   34 1  
    35   30   31 1  
    36   31   32 1  
    37   32   33 1  
    38   33   34 1  
    39    1   35 1  
    40    2   36 1  
    41    4   37 1  
    42    5   38 1  
    43   10   39 1  
    44   11   40 1  
    45   13   41 1  
    46   14   42 1  
    47   15   43 1  
    48   21   44 1  
    49   22   45 1  
    50   24   46 1  
    51   25   47 1  
    52   27   48 1  
    53   27   49 1  
    54   28   50 1  
    55   28   51 1  
    56   29   52 1  
    57   30   53 1  
    58   30   54 1  
    59   31   55 1  
    60   31   56 1  
    61   32   57 1  
    62   32   58 1  
    63   33   59 1  
    64   33   60 1  
    65   34   61 1  
    66   34   62 1  
@<TRIPOS>SUBSTRUCTURE
     1 RAL         1

