### 
### Created by X-TOOL on Mon Sep 10 21:12:47 2018
### 

@<TRIPOS>MOLECULE
1qku_ligand
   44    47     1     0     0
SMALL
GAST_HUCK


@<TRIPOS>ATOM
      1 C1        104.1060   17.2030   24.7750 C.ar      1 EST        -0.0749
      2 C2        102.9950   17.8340   25.3700 C.ar      1 EST        -0.0468
      3 C3        101.6950   17.3550   25.1200 C.ar      1 EST         0.0739
      4 O3        100.5980   17.9900   25.7040 O.3       1 EST        -0.3393
      5 C4        101.5060   16.2400   24.2740 C.ar      1 EST        -0.0385
      6 C5        102.6210   15.5880   23.6600 C.ar      1 EST        -0.0491
      7 C6        102.3710   14.3790   22.7350 C.3       1 EST        -0.0236
      8 C7        103.6440   13.7530   22.0860 C.3       1 EST        -0.0396
      9 C8        104.8980   13.8730   22.9530 C.3       1 EST        -0.0259
     10 C9        105.1780   15.3880   23.2610 C.3       1 EST        -0.0116
     11 C10       103.9570   16.0780   23.9180 C.ar      1 EST        -0.0484
     12 C11       106.4620   15.4590   24.1250 C.3       1 EST        -0.0421
     13 C12       107.7110   14.8030   23.5080 C.3       1 EST        -0.0433
     14 C13       107.4630   13.3430   23.1240 C.3       1 EST        -0.0028
     15 C14       106.1700   13.2700   22.2420 C.3       1 EST        -0.0285
     16 C15       106.2280   11.8210   21.7920 C.3       1 EST        -0.0469
     17 C16       107.7010   11.7130   21.2630 C.3       1 EST        -0.0261
     18 C17       108.4940   12.7190   22.1350 C.3       1 EST         0.0609
     19 O17       109.6100   12.0270   22.7460 O.3       1 EST        -0.3912
     20 C18       107.3790   12.4490   24.4190 C.3       1 EST        -0.0569
     21 H1        105.1002   17.5853   24.9759 H         1 EST         0.0511
     22 H2        103.1416   18.6886   26.0205 H         1 EST         0.0468
     23 H3        100.6801   17.9556   26.6498 H         1 EST         0.2457
     24 H4        100.5029   15.8737   24.0877 H         1 EST         0.0462
     25 H5        101.7033   14.7055   21.9241 H         1 EST         0.0410
     26 H6        101.8735   13.5968   23.3272 H         1 EST         0.0410
     27 H7        103.8328   14.2628   21.1298 H         1 EST         0.0290
     28 H8        103.4506   12.6861   21.9008 H         1 EST         0.0290
     29 H9        104.7273   13.3331   23.8961 H         1 EST         0.0326
     30 H10       105.3750   15.9061   22.3109 H         1 EST         0.0429
     31 H11       106.2545   14.9594   25.0828 H         1 EST         0.0286
     32 H12       106.6905   16.5196   24.3066 H         1 EST         0.0286
     33 H13       108.5311   14.8429   24.2400 H         1 EST         0.0273
     34 H14       107.9972   15.3635   22.6058 H         1 EST         0.0273
     35 H15       106.3123   13.8929   21.3466 H         1 EST         0.0311
     36 H16       105.4990   11.6193   20.9933 H         1 EST         0.0269
     37 H17       106.0517   11.1327   22.6317 H         1 EST         0.0269
     38 H18       107.7550   11.9912   20.2001 H         1 EST         0.0290
     39 H19       108.0889   10.6922   21.3951 H         1 EST         0.0290
     40 H20       108.8993   13.5226   21.5026 H         1 EST         0.0599
     41 H21       110.1731   11.6748   22.0667 H         1 EST         0.2098
     42 H22       106.6523   12.8860   25.1197 H         1 EST         0.0236
     43 H23       108.3682   12.4033   24.8979 H         1 EST         0.0236
     44 H24       107.0577   11.4337   24.1435 H         1 EST         0.0236
@<TRIPOS>BOND
     1    1    2 ar 
     2    1   11 ar 
     3    2    3 ar 
     4    3    4 1  
     5    3    5 ar 
     6    5    6 ar 
     7    6    7 1  
     8    6   11 ar 
     9    7    8 1  
    10    8    9 1  
    11    9   10 1  
    12    9   15 1  
    13   10   11 1  
    14   10   12 1  
    15   12   13 1  
    16   13   14 1  
    17   14   15 1  
    18   14   18 1  
    19   14   20 1  
    20   15   16 1  
    21   16   17 1  
    22   17   18 1  
    23   18   19 1  
    24    1   21 1  
    25    2   22 1  
    26    4   23 1  
    27    5   24 1  
    28    7   25 1  
    29    7   26 1  
    30    8   27 1  
    31    8   28 1  
    32    9   29 1  
    33   10   30 1  
    34   12   31 1  
    35   12   32 1  
    36   13   33 1  
    37   13   34 1  
    38   15   35 1  
    39   16   36 1  
    40   16   37 1  
    41   17   38 1  
    42   17   39 1  
    43   18   40 1  
    44   19   41 1  
    45   20   42 1  
    46   20   43 1  
    47   20   44 1  
@<TRIPOS>SUBSTRUCTURE
     1 EST         1

