### 
### Created by X-TOOL on Mon Sep 10 21:12:47 2018
### 

@<TRIPOS>MOLECULE
1ql7_ligand
   61    65     1     0     0
SMALL
GAST_HUCK


@<TRIPOS>ATOM
      1 N1         18.5230    7.5480   11.0100 N.ar      1 ZEN        -0.3162
      2 C2         19.1260    6.3320   11.0810 C.ar      1 ZEN        -0.0037
      3 C3         20.3680    6.1970   11.7260 C.ar      1 ZEN        -0.0167
      4 C5         20.3140    8.5760   12.2170 C.ar      1 ZEN        -0.0167
      5 C6         19.0800    8.6570   11.5570 C.ar      1 ZEN        -0.0037
      6 C4         20.9660    7.3330   12.3030 C.ar      1 ZEN         0.0610
      7 N7         22.2210    7.2210   12.9640 N.pl3     1 ZEN        -0.3003
      8 C8         22.7030    5.9010   13.3960 C.3       1 ZEN         0.0317
      9 C9         24.2500    5.8860   13.3330 C.3       1 ZEN        -0.0130
     10 C11        24.1850    8.4250   13.8120 C.3       1 ZEN        -0.0130
     11 C12        22.6520    8.2880   13.8790 C.3       1 ZEN         0.0317
     12 C10        24.9150    7.0770   14.1230 C.3       1 ZEN         0.0524
     13 C13        26.3620    7.2260   13.7020 C.2       1 ZEN         0.1817
     14 O23        26.5470    7.1770   12.4830 O.2       1 ZEN        -0.3966
     15 N14        27.3690    7.4100   14.5240 N.am      1 ZEN        -0.2699
     16 C15        27.2480    7.4710   15.9930 C.3       1 ZEN         0.0510
     17 C16        27.9910    8.7340   16.5080 C.3       1 ZEN         0.0500
     18 C18        29.3300    8.8400   14.4790 C.3       1 ZEN         0.0500
     19 C19        28.7220    7.5290   13.9770 C.3       1 ZEN         0.0510
     20 N17        29.3550    8.7870   15.9380 N.am      1 ZEN        -0.2302
     21 S20        30.2340   10.0180   16.5540 S.o2      1 ZEN         0.0707
     22 O21        31.4610   10.1160   15.7850 O.2       1 ZEN        -0.1501
     23 O22        30.3610    9.7750   17.9680 O.2       1 ZEN        -0.1501
     24 C24        29.3520   11.5230   16.3460 C.ar      1 ZEN         0.1090
     25 C25        29.4770   12.2390   15.1630 C.ar      1 ZEN        -0.0273
     26 C33        28.4800   11.9650   17.3500 C.ar      1 ZEN        -0.0345
     27 C34        27.7540   13.1400   17.1810 C.ar      1 ZEN        -0.0521
     28 C26        28.7550   13.4120   14.9810 C.ar      1 ZEN        -0.0160
     29 C27        27.8890   13.8680   16.0000 C.ar      1 ZEN        -0.0173
     30 C28        27.1650   15.0340   15.8170 C.ar      1 ZEN        -0.0401
     31 C30        28.1580   15.3090   13.6220 C.ar      1 ZEN        -0.0473
     32 C31        28.8860   14.1390   13.7990 C.ar      1 ZEN        -0.0536
     33 C29        27.3010   15.7520   14.6320 C.ar      1 ZEN         0.0411
     34 CL32       26.3820   17.1890   14.4050 Cl        1 ZEN        -0.0704
     35 H1         18.6485    5.4647   10.6396 H         1 ZEN         0.0780
     36 H2         20.8581    5.2315   11.7782 H         1 ZEN         0.0610
     37 H3         20.7604    9.4610   12.6559 H         1 ZEN         0.0610
     38 H4         18.5688    9.6101   11.4835 H         1 ZEN         0.0780
     39 H5         22.2989    5.1243   12.7300 H         1 ZEN         0.0521
     40 H6         22.3737    5.7072   14.4275 H         1 ZEN         0.0521
     41 H7         24.5577    5.9507   12.2789 H         1 ZEN         0.0312
     42 H8         24.6083    4.9386   13.7621 H         1 ZEN         0.0312
     43 H9         24.4669    8.7551   12.8013 H         1 ZEN         0.0312
     44 H10        24.5053    9.1786   14.5465 H         1 ZEN         0.0312
     45 H11        22.3498    8.0360   14.9062 H         1 ZEN         0.0521
     46 H12        22.1845    9.2384   13.5820 H         1 ZEN         0.0521
     47 H13        24.8611    6.8695   15.2019 H         1 ZEN         0.0539
     48 H14        27.6977    6.5712   16.4381 H         1 ZEN         0.0538
     49 H15        26.1860    7.5274   16.2738 H         1 ZEN         0.0538
     50 H16        28.0562    8.6960   17.6054 H         1 ZEN         0.0498
     51 H17        27.4344    9.6330   16.2046 H         1 ZEN         0.0498
     52 H18        30.3530    8.9516   14.0904 H         1 ZEN         0.0498
     53 H19        28.7163    9.6897   14.1453 H         1 ZEN         0.0498
     54 H20        28.6795    7.5357   12.8779 H         1 ZEN         0.0538
     55 H21        29.3357    6.6810   14.3151 H         1 ZEN         0.0538
     56 H22        30.1380   11.8827   14.3812 H         1 ZEN         0.0643
     57 H23        28.3706   11.3893   18.2619 H         1 ZEN         0.0637
     58 H24        27.0878   13.4869   17.9626 H         1 ZEN         0.0624
     59 H25        26.4952   15.3863   16.5931 H         1 ZEN         0.0630
     60 H26        28.2548   15.8761   12.7032 H         1 ZEN         0.0623
     61 H27        29.5546   13.7922   13.0194 H         1 ZEN         0.0623
@<TRIPOS>BOND
     1    1    2 ar 
     2    1    5 ar 
     3    2    3 ar 
     4    3    6 ar 
     5    6    7 1  
     6    7    8 1  
     7    7   11 1  
     8    8    9 1  
     9    9   12 1  
    10   12   13 1  
    11   13   14 2  
    12   13   15 am 
    13   15   16 1  
    14   15   19 1  
    15   16   17 1  
    16   17   20 1  
    17   20   21 am 
    18   21   22 2  
    19   21   23 2  
    20   21   24 1  
    21   24   25 ar 
    22   24   26 ar 
    23   25   28 ar 
    24   26   27 ar 
    25   27   29 ar 
    26   28   29 ar 
    27   28   32 ar 
    28   29   30 ar 
    29   30   33 ar 
    30   33   34 1  
    31   33   31 ar 
    32   32   31 ar 
    33   20   18 1  
    34   19   18 1  
    35   12   10 1  
    36   11   10 1  
    37    6    4 ar 
    38    5    4 ar 
    39    2   35 1  
    40    3   36 1  
    41    4   37 1  
    42    5   38 1  
    43    8   39 1  
    44    8   40 1  
    45    9   41 1  
    46    9   42 1  
    47   10   43 1  
    48   10   44 1  
    49   11   45 1  
    50   11   46 1  
    51   12   47 1  
    52   16   48 1  
    53   16   49 1  
    54   17   50 1  
    55   17   51 1  
    56   18   52 1  
    57   18   53 1  
    58   19   54 1  
    59   19   55 1  
    60   25   56 1  
    61   26   57 1  
    62   27   58 1  
    63   30   59 1  
    64   31   60 1  
    65   32   61 1  
@<TRIPOS>SUBSTRUCTURE
     1 ZEN         1

