### 
### Created by X-TOOL on Mon Sep 10 21:12:47 2018
### 

@<TRIPOS>MOLECULE
1ql9_ligand
   61    65     1     0     0
SMALL
GAST_HUCK


@<TRIPOS>ATOM
      1 N1         18.2230   50.5650   59.9120 N.ar      1 ZEN        -0.3162
      2 C2         17.9420   51.0010   61.1640 C.ar      1 ZEN        -0.0037
      3 C3         16.7870   50.5590   61.8240 C.ar      1 ZEN        -0.0167
      4 C5         16.2510   49.2190   59.8740 C.ar      1 ZEN        -0.0167
      5 C6         17.4170   49.6950   59.2640 C.ar      1 ZEN        -0.0037
      6 C4         15.9280   49.6580   61.1670 C.ar      1 ZEN         0.0610
      7 N7         14.7500   49.1820   61.8130 N.pl3     1 ZEN        -0.3003
      8 C8         14.4290   49.5320   63.2230 C.3       1 ZEN         0.0317
      9 C9         13.0270   50.2030   63.3210 C.3       1 ZEN        -0.0130
     10 C11        12.3770   49.1220   61.1300 C.3       1 ZEN        -0.0130
     11 C12        13.7350   48.3930   61.0840 C.3       1 ZEN         0.0317
     12 C10        11.9290   49.3530   62.6090 C.3       1 ZEN         0.0524
     13 C13        10.5660   50.0330   62.6130 C.2       1 ZEN         0.1817
     14 O23        10.5770   51.2380   62.8600 O.2       1 ZEN        -0.3966
     15 N14         9.4420   49.4100   62.3370 N.am      1 ZEN        -0.2699
     16 C15         9.3660   47.9510   62.0360 C.3       1 ZEN         0.0510
     17 C16         8.5640   47.7320   60.7300 C.3       1 ZEN         0.0500
     18 C18         7.4540   49.9040   60.9880 C.3       1 ZEN         0.0500
     19 C19         8.1660   50.1570   62.3430 C.3       1 ZEN         0.0510
     20 N17         7.2720   48.4430   60.8410 N.am      1 ZEN        -0.2302
     21 S20         6.2200   48.0300   59.6480 S.o2      1 ZEN         0.0707
     22 O21         5.0680   48.9160   59.7320 O.2       1 ZEN        -0.1501
     23 O22         5.9520   46.6270   59.8260 O.2       1 ZEN        -0.1501
     24 C24         6.9580   48.2550   58.0380 C.ar      1 ZEN         0.1090
     25 C25         6.9530   49.5250   57.4270 C.ar      1 ZEN        -0.0273
     26 C33         7.5660   47.1690   57.3800 C.ar      1 ZEN        -0.0345
     27 C34         8.1500   47.3420   56.1160 C.ar      1 ZEN        -0.0521
     28 C26         7.5350   49.7090   56.1580 C.ar      1 ZEN        -0.0160
     29 C27         8.1350   48.6060   55.5000 C.ar      1 ZEN        -0.0173
     30 C28         8.7140   48.7820   54.2470 C.ar      1 ZEN        -0.0401
     31 C30         8.1040   51.1390   54.2760 C.ar      1 ZEN        -0.0473
     32 C31         7.5190   50.9720   55.5360 C.ar      1 ZEN        -0.0536
     33 C29         8.7040   50.0390   53.6350 C.ar      1 ZEN         0.0411
     34 CL32        9.4500   50.2280   52.0690 Cl        1 ZEN        -0.0704
     35 H1         18.6133   51.6946   61.6572 H         1 ZEN         0.0780
     36 H2         16.5588   50.9059   62.8253 H         1 ZEN         0.0610
     37 H3         15.6056   48.5201   59.3543 H         1 ZEN         0.0610
     38 H4         17.6755   49.3636   58.2648 H         1 ZEN         0.0780
     39 H5         15.1898   50.2293   63.6037 H         1 ZEN         0.0521
     40 H6         14.4337   48.6160   63.8320 H         1 ZEN         0.0521
     41 H7         13.0726   51.1948   62.8476 H         1 ZEN         0.0312
     42 H8         12.7588   50.3150   64.3819 H         1 ZEN         0.0312
     43 H9         12.4710   50.0943   60.6243 H         1 ZEN         0.0312
     44 H10        11.6211   48.5118   60.6140 H         1 ZEN         0.0312
     45 H11        13.6346   47.4035   61.5538 H         1 ZEN         0.0521
     46 H12        14.0493   48.2716   60.0369 H         1 ZEN         0.0521
     47 H13        11.8408   48.3845   63.1229 H         1 ZEN         0.0539
     48 H14         8.8639   47.4316   62.8655 H         1 ZEN         0.0538
     49 H15        10.3825   47.5489   61.9133 H         1 ZEN         0.0538
     50 H16         8.3832   46.6570   60.5827 H         1 ZEN         0.0498
     51 H17         9.1324   48.1287   59.8759 H         1 ZEN         0.0498
     52 H18         6.4753   50.4061   60.9797 H         1 ZEN         0.0498
     53 H19         8.0710   50.2895   60.1630 H         1 ZEN         0.0498
     54 H20         8.3637   51.2321   62.4654 H         1 ZEN         0.0538
     55 H21         7.5313   49.8045   63.1693 H         1 ZEN         0.0538
     56 H22         6.4979   50.3661   57.9375 H         1 ZEN         0.0643
     57 H23         7.5831   46.1936   57.8526 H         1 ZEN         0.0637
     58 H24         8.6132   46.5004   55.6138 H         1 ZEN         0.0624
     59 H25         9.1751   47.9404   53.7429 H         1 ZEN         0.0630
     60 H26         8.0951   52.1108   53.7959 H         1 ZEN         0.0623
     61 H27         7.0534   51.8152   56.0334 H         1 ZEN         0.0623
@<TRIPOS>BOND
     1    1    2 ar 
     2    1    5 ar 
     3    2    3 ar 
     4    3    6 ar 
     5    6    7 1  
     6    7    8 1  
     7    7   11 1  
     8    8    9 1  
     9    9   12 1  
    10   12   13 1  
    11   13   14 2  
    12   13   15 am 
    13   15   16 1  
    14   15   19 1  
    15   16   17 1  
    16   17   20 1  
    17   20   21 am 
    18   21   22 2  
    19   21   23 2  
    20   21   24 1  
    21   24   25 ar 
    22   24   26 ar 
    23   25   28 ar 
    24   26   27 ar 
    25   27   29 ar 
    26   28   29 ar 
    27   28   32 ar 
    28   29   30 ar 
    29   30   33 ar 
    30   33   34 1  
    31   33   31 ar 
    32   32   31 ar 
    33   20   18 1  
    34   19   18 1  
    35   12   10 1  
    36   11   10 1  
    37    6    4 ar 
    38    5    4 ar 
    39    2   35 1  
    40    3   36 1  
    41    4   37 1  
    42    5   38 1  
    43    8   39 1  
    44    8   40 1  
    45    9   41 1  
    46    9   42 1  
    47   10   43 1  
    48   10   44 1  
    49   11   45 1  
    50   11   46 1  
    51   12   47 1  
    52   16   48 1  
    53   16   49 1  
    54   17   50 1  
    55   17   51 1  
    56   18   52 1  
    57   18   53 1  
    58   19   54 1  
    59   19   55 1  
    60   25   56 1  
    61   26   57 1  
    62   27   58 1  
    63   30   59 1  
    64   31   60 1  
    65   32   61 1  
@<TRIPOS>SUBSTRUCTURE
     1 ZEN         1

