### 
### Created by X-TOOL on Mon Sep 10 21:12:48 2018
### 

@<TRIPOS>MOLECULE
1qm4_ligand
   18    17     1     0     0
SMALL
GAST_HUCK


@<TRIPOS>ATOM
      1 CB          2.7050   33.7660   52.9570 C.2       1 AMB        -0.0189
      2 CG          1.6370   33.4940   53.8720 C.2       1 AMB         0.0418
      3 OD          0.2870   33.9880   54.0210 O.3       1 AMB        -0.3401
      4 CE         -0.7110   33.1990   54.6780 C.3       1 AMB         0.0559
      5 C           4.3980   34.8100   51.5690 C.2       1 AMB         0.0902
      6 O           4.8470   35.5220   50.6290 O.co2     1 AMB        -0.5626
      7 OXT         5.1900   34.2300   52.3330 O.co2     1 AMB        -0.5626
      8 N           2.2700   34.2170   50.5220 N.4       1 AMB         0.2399
      9 CA          2.9030   34.6730   51.7570 C.3       1 AMB         0.0406
     10 H1          3.5939   33.1765   53.1769 H         1 AMB         0.0405
     11 H2          1.9009   32.7497   54.6219 H         1 AMB         0.0859
     12 H3         -1.6642   33.7480   54.6884 H         1 AMB         0.0576
     13 H4         -0.3947   32.9940   55.7114 H         1 AMB         0.0576
     14 H5         -0.8409   32.2490   54.1390 H         1 AMB         0.0576
     15 H6          1.2760   34.1316   50.6657 H         1 AMB         0.2018
     16 H7          2.6500   33.3207   50.2607 H         1 AMB         0.2018
     17 H8          2.4472   34.8841   49.7874 H         1 AMB         0.2018
     18 H9          2.4787   35.6587   51.9985 H         1 AMB         0.1112
@<TRIPOS>BOND
     1    1    2 2  
     2    9    1 1  
     3    2    3 1  
     4    3    4 1  
     5    5    6 ar 
     6    5    7 ar 
     7    5    9 1  
     8    9    8 1  
     9    1   10 1  
    10    2   11 1  
    11    4   12 1  
    12    4   13 1  
    13    4   14 1  
    14    8   15 1  
    15    8   16 1  
    16    8   17 1  
    17    9   18 1  
@<TRIPOS>SUBSTRUCTURE
     1 AMB         1

