### 
### Created by X-TOOL on Mon Sep 10 21:12:47 2018
### 

@<TRIPOS>MOLECULE
1qon_ligand
   42    45     1     0     0
SMALL
GAST_HUCK


@<TRIPOS>ATOM
      1 C1         31.8800   63.6290    9.8680 C.3       1 I40        -0.0081
      2 C2         30.8340   63.6860    8.7470 C.3       1 I40        -0.0400
      3 C3         30.2550   64.9410    8.5700 C.3       1 I40        -0.0439
      4 C4         31.2030   66.2100    8.4080 C.3       1 I40        -0.0210
      5 C5         33.6250   67.0380    9.2530 C.ar      1 I40         0.0708
      6 C6         35.9450   67.7160   10.1380 C.ar      1 I40        -0.0528
      7 C7         37.1020   67.4270   10.8440 C.ar      1 I40        -0.0632
      8 C8         37.2140   66.1450   11.4450 C.ar      1 I40        -0.0640
      9 C9         36.2670   65.2160   11.3640 C.ar      1 I40        -0.0521
     10 N1         34.0400   64.5160   10.5460 N.ar      1 I40        -0.3281
     11 C10        32.9550   64.7550    9.9000 C.ar      1 I40         0.0105
     12 C11        32.5750   65.9610    9.1820 C.ar      1 I40         0.0055
     13 C12        34.8840   66.8410    9.9730 C.ar      1 I40         0.0199
     14 C13        35.0370   65.4680   10.6350 C.ar      1 I40         0.0179
     15 N2         33.1870   68.1090    8.6030 N.pl3     1 I40        -0.3030
     16 I1         28.9990   71.0380   10.6010 I         1 I40        -0.0511
     17 C14        33.7980   69.4540    8.4450 C.3       1 I40         0.0613
     18 C15        33.0450   70.2770    9.5330 C.ar      1 I40        -0.0180
     19 C16        31.6720   70.2820    9.5570 C.ar      1 I40        -0.0473
     20 C17        31.0360   70.9770   10.5100 C.ar      1 I40         0.0029
     21 C18        31.6910   71.7060   11.4950 C.ar      1 I40        -0.0577
     22 C19        33.0330   71.7230   11.5060 C.ar      1 I40        -0.0656
     23 C20        33.7830   71.0070   10.5230 C.ar      1 I40        -0.0559
     24 H1         32.4096   62.6692    9.7772 H         1 I40         0.0453
     25 H2         31.3399   63.6606   10.8257 H         1 I40         0.0453
     26 H3         30.0352   62.9677    8.9835 H         1 I40         0.0292
     27 H4         31.3216   63.3950    7.8049 H         1 I40         0.0292
     28 H5         29.6136   65.1268    9.4441 H         1 I40         0.0284
     29 H6         29.6333   64.8849    7.6643 H         1 I40         0.0284
     30 H7         30.7028   67.0955    8.8270 H         1 I40         0.0386
     31 H8         31.4108   66.3769    7.3408 H         1 I40         0.0386
     32 H9         35.8646   68.6964    9.6826 H         1 I40         0.0636
     33 H10        37.8977   68.1575   10.9348 H         1 I40         0.0585
     34 H11        38.1172   65.9126   11.9975 H         1 I40         0.0621
     35 H12        36.4149   64.2577   11.8485 H         1 I40         0.0590
     36 H13        32.2784   67.9885    8.1330 H         1 I40         0.1842
     37 H14        33.6169   69.8603    7.4390 H         1 I40         0.0684
     38 H15        34.8801   69.4277    8.6405 H         1 I40         0.0684
     39 H16        31.1089   69.7299    8.8133 H         1 I40         0.0586
     40 H17        31.1272   72.2522   12.2425 H         1 I40         0.0587
     41 H18        33.5546   72.2873   12.2706 H         1 I40         0.0606
     42 H19        34.8670   71.0151   10.5253 H         1 I40         0.0578
@<TRIPOS>BOND
     1    1    2 1  
     2   11    1 1  
     3    3    2 1  
     4    4    3 1  
     5   12    4 1  
     6    5   12 ar 
     7    5   13 ar 
     8   15    5 1  
     9    6    7 ar 
    10   13    6 ar 
    11    7    8 ar 
    12    9    8 ar 
    13   14    9 ar 
    14   11   10 ar 
    15   14   10 ar 
    16   12   11 ar 
    17   13   14 ar 
    18   17   15 1  
    19   20   16 1  
    20   18   17 1  
    21   19   18 ar 
    22   18   23 ar 
    23   19   20 ar 
    24   20   21 ar 
    25   21   22 ar 
    26   22   23 ar 
    27    1   24 1  
    28    1   25 1  
    29    2   26 1  
    30    2   27 1  
    31    3   28 1  
    32    3   29 1  
    33    4   30 1  
    34    4   31 1  
    35    6   32 1  
    36    7   33 1  
    37    8   34 1  
    38    9   35 1  
    39   15   36 1  
    40   17   37 1  
    41   17   38 1  
    42   19   39 1  
    43   21   40 1  
    44   22   41 1  
    45   23   42 1  
@<TRIPOS>SUBSTRUCTURE
     1 I40         1

