### 
### Created by X-TOOL on Mon Sep 10 21:12:48 2018
### 

@<TRIPOS>MOLECULE
1qpb_ligand
   11    10     1     0     0
SMALL
GAST_HUCK


@<TRIPOS>ATOM
      1 C1         82.9990   56.8860   17.2360 C.2       1 PYM         0.2642
      2 N1         82.0260   57.0570   18.0540 N.am      1 PYM        -0.2902
      3 O1         83.2360   55.7190   16.7440 O.2       1 PYM        -0.3598
      4 C2         83.7870   57.9910   16.8900 C.2       1 PYM         0.2084
      5 O2         83.6450   59.1400   17.3020 O.2       1 PYM        -0.3507
      6 C3         84.8470   58.1110   16.0790 C.3       1 PYM         0.0236
      7 H1         81.8455   57.9644   18.4336 H         1 PYM         0.1828
      8 H2         81.4479   56.2829   18.3122 H         1 PYM         0.1828
      9 H3         85.1876   59.1569   16.0732 H         1 PYM         0.0463
     10 H4         84.5640   57.8119   15.0590 H         1 PYM         0.0463
     11 H5         85.6595   57.4628   16.4391 H         1 PYM         0.0463
@<TRIPOS>BOND
     1    1    2 am 
     2    1    3 2  
     3    1    4 1  
     4    4    5 2  
     5    4    6 1  
     6    2    7 1  
     7    2    8 1  
     8    6    9 1  
     9    6   10 1  
    10    6   11 1  
@<TRIPOS>SUBSTRUCTURE
     1 PYM         1

