### 
### Created by X-TOOL on Mon Sep 10 21:12:47 2018
### 

@<TRIPOS>MOLECULE
1qpe_ligand
   37    39     1     0     0
SMALL
GAST_HUCK


@<TRIPOS>ATOM
      1 C1         25.3570   37.1410   83.3590 C.ar      1 PP2         0.1643
      2 N2         26.3410   36.6570   82.5560 N.ar      1 PP2        -0.2674
      3 C3         25.9990   35.6530   81.7810 C.ar      1 PP2         0.0566
      4 N4         24.7390   35.1270   81.7880 N.ar      1 PP2        -0.2655
      5 C5         23.7410   35.5340   82.5440 C.ar      1 PP2         0.1276
      6 C6         24.0410   36.6380   83.4210 C.ar      1 PP2         0.0877
      7 C8         23.2900   37.3920   84.3180 C.2       1 PP2         0.0736
      8 N9         24.0960   38.3650   84.7990 N.2       1 PP2        -0.1914
      9 N10        25.3550   38.2130   84.2400 N.pl3     1 PP2        -0.1771
     10 C11        21.9410   37.1830   84.8550 C.ar      1 PP2        -0.0075
     11 C12        21.5890   35.9510   85.4520 C.ar      1 PP2        -0.0537
     12 C13        20.3660   35.7620   86.1120 C.ar      1 PP2        -0.0479
     13 C14        19.4670   36.8480   86.1570 C.ar      1 PP2         0.0399
     14 C15        19.7750   38.0810   85.5950 C.ar      1 PP2        -0.0479
     15 C16        21.0480   38.2860   84.9010 C.ar      1 PP2        -0.0537
     16 C22        26.5070   39.1390   84.6030 C.3       1 PP2         0.0837
     17 C23        26.9570   39.8980   83.2930 C.3       1 PP2        -0.0311
     18 C24        27.6460   38.5070   85.4450 C.3       1 PP2        -0.0311
     19 C25        26.0500   40.2190   85.7040 C.3       1 PP2        -0.0311
     20 N25        22.4580   35.0320   82.3980 N.pl3     1 PP2        -0.3125
     21 CL         17.8600   36.6550   86.8930 Cl        1 PP2        -0.0708
     22 H1         26.7410   35.2284   81.1145 H         1 PP2         0.1030
     23 H2         22.2880   35.1243   85.3979 H         1 PP2         0.0618
     24 H3         20.1196   34.8121   86.5726 H         1 PP2         0.0622
     25 H4         19.0668   38.8981   85.6710 H         1 PP2         0.0622
     26 H5         21.2973   39.2365   84.4432 H         1 PP2         0.0618
     27 H6         27.7908   40.5753   83.5298 H         1 PP2         0.0262
     28 H7         26.1118   40.4810   82.8983 H         1 PP2         0.0262
     29 H8         27.2819   39.1664   82.5386 H         1 PP2         0.0262
     30 H9         28.4177   39.2648   85.6453 H         1 PP2         0.0262
     31 H10        28.0910   37.6686   84.8892 H         1 PP2         0.0262
     32 H11        27.2371   38.1395   86.3977 H         1 PP2         0.0262
     33 H12        26.8986   40.8747   85.9487 H         1 PP2         0.0262
     34 H13        25.7159   39.6972   86.6129 H         1 PP2         0.0262
     35 H14        25.2231   40.8237   85.3034 H         1 PP2         0.0262
     36 H15        21.6996   35.3722   83.0062 H         1 PP2         0.1842
     37 H16        22.2626   34.3186   81.6812 H         1 PP2         0.1842
@<TRIPOS>BOND
     1    9    1 1  
     2    1    6 ar 
     3    1    2 ar 
     4    2    3 ar 
     5    3    4 ar 
     6    4    5 ar 
     7    5   20 1  
     8    6    5 ar 
     9    6    7 1  
    10    7   10 1  
    11    7    8 2  
    12    8    9 1  
    13    9   16 1  
    14   16   19 1  
    15   16   18 1  
    16   16   17 1  
    17   10   15 ar 
    18   10   11 ar 
    19   11   12 ar 
    20   12   13 ar 
    21   13   21 1  
    22   13   14 ar 
    23   14   15 ar 
    24    3   22 1  
    25   11   23 1  
    26   12   24 1  
    27   14   25 1  
    28   15   26 1  
    29   17   27 1  
    30   17   28 1  
    31   17   29 1  
    32   18   30 1  
    33   18   31 1  
    34   18   32 1  
    35   19   33 1  
    36   19   34 1  
    37   19   35 1  
    38   20   36 1  
    39   20   37 1  
@<TRIPOS>SUBSTRUCTURE
     1 PP2         1

