### 
### Created by X-TOOL on Mon Sep 10 21:12:47 2018
### 

@<TRIPOS>MOLECULE
1qpl_ligand
  143   148     1     0     0
SMALL
GAST_HUCK


@<TRIPOS>ATOM
      1 C1         47.9280   29.9990    5.2070 C.2       1 587         0.2621
      2 C2         48.0600   29.7790    3.7070 C.3       1 587         0.1459
      3 C3         49.3580   30.4020    3.2000 C.3       1 587        -0.0106
      4 C4         49.3660   31.9220    3.2410 C.3       1 587        -0.0469
      5 C5         48.2010   32.4780    2.4490 C.3       1 587        -0.0320
      6 C6         46.9000   31.8960    2.9590 C.3       1 587         0.0376
      7 C8         46.2470   29.6840    2.1900 C.2       1 587         0.2778
      8 C9         45.3170   30.2640    1.3720 C.2       1 587         0.2928
      9 C10        43.9070   30.6050    1.7810 C.3       1 587         0.2516
     10 C11        43.4350   29.5440    2.7860 C.3       1 587         0.0194
     11 C12        42.2140   30.0740    3.5270 C.3       1 587        -0.0176
     12 C13        42.4080   31.4970    4.0320 C.3       1 587         0.0870
     13 C14        42.8100   32.3970    2.8580 C.3       1 587         0.1119
     14 C15        43.0270   33.8840    3.1020 C.3       1 587         0.0872
     15 C16        43.9920   34.1050    4.2710 C.3       1 587        -0.0174
     16 C17        44.3060   35.5570    4.6450 C.3       1 587        -0.0066
     17 C18        43.1210   36.3050    5.2750 C.3       1 587         0.0834
     18 C19        43.0730   35.9870    6.7570 C.2       1 587        -0.0525
     19 C20        42.4750   34.8700    7.1750 C.2       1 587        -0.0859
     20 C21        42.4450   34.3990    8.5890 C.3       1 587         0.0382
     21 C22        43.2030   33.0880    8.7680 C.2       1 587         0.1141
     22 C23        44.6430   33.2160    9.2570 C.3       1 587         0.0489
     23 C24        45.5240   32.0330    8.8440 C.3       1 587         0.0778
     24 C25        45.7360   32.0010    7.3240 C.3       1 587         0.0236
     25 C26        46.5020   30.7020    7.0500 C.3       1 587         0.1176
     26 C27        45.6540   29.5200    7.4160 C.2       1 587        -0.0504
     27 C28        46.0920   28.7080    8.3810 C.2       1 587        -0.1031
     28 C29        45.3660   27.5350    8.9790 C.3       1 587        -0.0325
     29 C30        46.3320   26.3810    9.2530 C.3       1 587        -0.0178
     30 C31        45.7260   25.1850    9.9960 C.3       1 587         0.0897
     31 C32        45.1200   25.6550   11.3210 C.3       1 587         0.1050
     32 C33        44.1140   26.7740   11.0690 C.3       1 587        -0.0188
     33 C34        44.7170   27.9400   10.3050 C.3       1 587        -0.0442
     34 C35        43.0580   28.2830    2.0440 C.3       1 587        -0.0584
     35 C36        44.8160   36.2820    3.4050 C.3       1 587        -0.0582
     36 C37        43.7020   36.9400    7.7550 C.3       1 587        -0.0372
     37 C38        40.9910   34.2420    9.0200 C.3       1 587        -0.0342
     38 C39        40.8200   33.9090   10.4770 C.3       1 587        -0.0618
     39 C41        46.5600   33.1950    6.8790 C.3       1 587        -0.0555
     40 C42        44.3810   29.3060    6.6260 C.3       1 587        -0.0376
     41 C43        40.9700   31.4140    5.8980 C.3       1 587         0.0369
     42 C44        41.1990   34.7910    2.0640 C.3       1 587         0.0369
     43 C45        47.3780   23.5920    9.3140 C.3       1 587         0.0369
     44 C58        44.8260   24.4020   13.2840 C.ar      1 587         0.0735
     45 C59        46.1740   24.3740   13.6540 C.ar      1 587        -0.0453
     46 C60        43.8150   24.5390   14.2410 C.ar      1 587        -0.0492
     47 C61        44.1450   24.6710   15.6040 C.ar      1 587        -0.0376
     48 C62        46.5290   24.4960   14.9700 C.ar      1 587        -0.0484
     49 C63        45.5080   24.6460   15.9250 C.ar      1 587         0.0566
     50 C64        43.3380   24.8570   16.7120 C.2       1 587        -0.0678
     51 N65        45.5660   24.8570   17.4020 N.pl3     1 587        -0.2732
     52 C66        44.0060   24.9960   17.9210 C.2       1 587         0.0214
     53 C67        46.7610   25.0320   18.2720 C.3       1 587         0.0392
     54 N7         47.0050   30.4310    2.9580 N.am      1 587        -0.2402
     55 O1         46.7840   30.5770    5.6700 O.3       1 587        -0.2597
     56 O2         48.8470   29.6810    5.9650 O.2       1 587        -0.3676
     57 O3         46.3080   28.4520    2.1560 O.2       1 587        -0.3605
     58 O4         45.6500   30.5680    0.2240 O.2       1 587        -0.2853
     59 O5         43.9960   31.9040    2.2980 O.3       1 587        -0.3394
     60 O6         43.0760   30.6430    0.6440 O.3       1 587        -0.3640
     61 O7         41.1770   31.9150    4.5850 O.3       1 587        -0.3771
     62 O8         41.7360   34.4060    3.3250 O.3       1 587        -0.3771
     63 O9         42.6610   31.9960    8.5730 O.2       1 587        -0.3898
     64 O10        46.7790   32.2120    9.5110 O.3       1 587        -0.3889
     65 O11        46.7030   24.2450   10.3900 O.3       1 587        -0.3767
     66 O12        44.4940   24.5300   11.9590 O.3       1 587        -0.3209
     67 O13        43.2070   37.7100    5.0870 O.3       1 587        -0.3803
     68 H1         48.0495   28.6982    3.5028 H         1 587         0.0820
     69 H2         49.5127   30.0824    2.1589 H         1 587         0.0314
     70 H3         50.1861   30.0339    3.8235 H         1 587         0.0314
     71 H4         50.3075   32.2913    2.8082 H         1 587         0.0268
     72 H5         49.2865   32.2568    4.2858 H         1 587         0.0268
     73 H6         48.3250   32.2169    1.3877 H         1 587         0.0285
     74 H7         48.1770   33.5724    2.5570 H         1 587         0.0285
     75 H8         46.0733   32.2079    2.3038 H         1 587         0.0526
     76 H9         46.7114   32.2525    3.9824 H         1 587         0.0526
     77 H10        44.2404   29.3260    3.5028 H         1 587         0.0336
     78 H11        42.0124   29.4192    4.3876 H         1 587         0.0294
     79 H12        41.3523   30.0571    2.8435 H         1 587         0.0294
     80 H13        43.1932   31.5241    4.8019 H         1 587         0.0622
     81 H14        42.0042   32.3129    2.1140 H         1 587         0.0646
     82 H15        43.4596   34.3527    2.2058 H         1 587         0.0623
     83 H16        44.9427   33.6149    4.0144 H         1 587         0.0296
     84 H17        43.5570   33.6201    5.1574 H         1 587         0.0296
     85 H18        45.1144   35.5420    5.3908 H         1 587         0.0346
     86 H19        42.1934   35.9497    4.8024 H         1 587         0.0747
     87 H20        41.9719   34.2574    6.4284 H         1 587         0.0266
     88 H21        42.9227   35.1610    9.2224 H         1 587         0.0599
     89 H22        44.6356   33.2807   10.3551 H         1 587         0.0520
     90 H23        45.0746   34.1371    8.8383 H         1 587         0.0520
     91 H24        45.0570   31.0896    9.1632 H         1 587         0.0624
     92 H25        44.7699   32.0010    6.7980 H         1 587         0.0375
     93 H26        47.4360   30.6967    7.6311 H         1 587         0.0802
     94 H27        47.0838   28.9183    8.7786 H         1 587         0.0246
     95 H28        44.5882   27.2001    8.2770 H         1 587         0.0375
     96 H29        47.1647   26.7704    9.8570 H         1 587         0.0308
     97 H30        46.7163   26.0221    8.2868 H         1 587         0.0308
     98 H31        44.9659   24.7077    9.3601 H         1 587         0.0627
     99 H32        45.9202   26.0381   11.9713 H         1 587         0.0672
    100 H33        43.7450   27.1409   12.0381 H         1 587         0.0296
    101 H34        43.2738   26.3680   10.4866 H         1 587         0.0296
    102 H35        43.9190   28.6669   10.0937 H         1 587         0.0283
    103 H36        45.4837   28.4108   10.9378 H         1 587         0.0283
    104 H37        43.9370   27.8967    1.5073 H         1 587         0.0232
    105 H38        42.2577   28.5069    1.3234 H         1 587         0.0232
    106 H39        42.7049   27.5273    2.7611 H         1 587         0.0232
    107 H40        45.6621   35.7248    2.9765 H         1 587         0.0235
    108 H41        45.1461   37.2941    3.6818 H         1 587         0.0235
    109 H42        44.0079   36.3502    2.6618 H         1 587         0.0235
    110 H43        43.5690   36.5451    8.7730 H         1 587         0.0379
    111 H44        43.2175   37.9245    7.6775 H         1 587         0.0379
    112 H45        44.7757   37.0416    7.5385 H         1 587         0.0379
    113 H46        40.5385   33.4351    8.4249 H         1 587         0.0304
    114 H47        40.4655   35.1867    8.8166 H         1 587         0.0304
    115 H48        39.7488   33.8127   10.7078 H         1 587         0.0233
    116 H49        41.2565   34.7112   11.0902 H         1 587         0.0233
    117 H50        41.3295   32.9596   10.6984 H         1 587         0.0233
    118 H51        46.0016   34.1212    7.0799 H         1 587         0.0236
    119 H52        46.7657   33.1174    5.8012 H         1 587         0.0236
    120 H53        47.5100   33.2120    7.4333 H         1 587         0.0236
    121 H54        43.8639   28.4099    6.9997 H         1 587         0.0376
    122 H55        44.6278   29.1703    5.5627 H         1 587         0.0376
    123 H56        43.7261   30.1822    6.7415 H         1 587         0.0376
    124 H57        40.0006   31.7694    6.2774 H         1 587         0.0524
    125 H58        41.7749   31.7704    6.5576 H         1 587         0.0524
    126 H59        40.9741   30.3142    5.8757 H         1 587         0.0524
    127 H60        40.1891   35.2033    2.2060 H         1 587         0.0524
    128 H61        41.1468   33.9125    1.4040 H         1 587         0.0524
    129 H62        41.8460   35.5546    1.6076 H         1 587         0.0524
    130 H63        48.1149   22.8833    9.7198 H         1 587         0.0524
    131 H64        47.8926   24.3417    8.6951 H         1 587         0.0524
    132 H65        46.6464   23.0480    8.6985 H         1 587         0.0524
    133 H66        46.9401   24.2553   12.8963 H         1 587         0.0481
    134 H67        42.7757   24.5436   13.9331 H         1 587         0.0430
    135 H68        47.5709   24.4775   15.2686 H         1 587         0.0528
    136 H69        42.2519   24.8920   16.6407 H         1 587         0.0273
    137 H70        43.6129   25.1521   18.9245 H         1 587         0.0928
    138 H71        47.6735   24.8856   17.6754 H         1 587         0.0563
    139 H72        46.7330   24.2931   19.0864 H         1 587         0.0563
    140 H73        46.7597   26.0465   18.6971 H         1 587         0.0563
    141 H74        43.4525   31.2283   -0.0026 H         1 587         0.2100
    142 H75        46.6374   32.2305   10.4502 H         1 587         0.2100
    143 H76        43.2367   37.9027    4.1572 H         1 587         0.2129
@<TRIPOS>BOND
     1    1    2 1  
     2   55    1 1  
     3    1   56 2  
     4    2    3 1  
     5    2   54 1  
     6    3    4 1  
     7    4    5 1  
     8    6    5 1  
     9   54    6 1  
    10    7    8 1  
    11   54    7 am 
    12    7   57 2  
    13    8    9 1  
    14    8   58 2  
    15    9   10 1  
    16    9   59 1  
    17    9   60 1  
    18   10   11 1  
    19   10   34 1  
    20   11   12 1  
    21   13   12 1  
    22   12   61 1  
    23   13   14 1  
    24   59   13 1  
    25   14   15 1  
    26   14   62 1  
    27   16   15 1  
    28   17   16 1  
    29   16   35 1  
    30   18   17 1  
    31   17   67 1  
    32   19   18 2  
    33   18   36 1  
    34   20   19 1  
    35   21   20 1  
    36   20   37 1  
    37   22   21 1  
    38   21   63 2  
    39   23   22 1  
    40   24   23 1  
    41   23   64 1  
    42   25   24 1  
    43   24   39 1  
    44   26   25 1  
    45   25   55 1  
    46   27   26 2  
    47   26   40 1  
    48   28   27 1  
    49   29   28 1  
    50   33   28 1  
    51   30   29 1  
    52   31   30 1  
    53   30   65 1  
    54   31   32 1  
    55   66   31 1  
    56   32   33 1  
    57   37   38 1  
    58   61   41 1  
    59   62   42 1  
    60   65   43 1  
    61   44   45 ar 
    62   44   46 ar 
    63   44   66 1  
    64   45   48 ar 
    65   46   47 ar 
    66   47   49 ar 
    67   47   50 1  
    68   48   49 ar 
    69   49   51 1  
    70   50   52 2  
    71   51   52 1  
    72   51   53 1  
    73    2   68 1  
    74    3   69 1  
    75    3   70 1  
    76    4   71 1  
    77    4   72 1  
    78    5   73 1  
    79    5   74 1  
    80    6   75 1  
    81    6   76 1  
    82   10   77 1  
    83   11   78 1  
    84   11   79 1  
    85   12   80 1  
    86   13   81 1  
    87   14   82 1  
    88   15   83 1  
    89   15   84 1  
    90   16   85 1  
    91   17   86 1  
    92   19   87 1  
    93   20   88 1  
    94   22   89 1  
    95   22   90 1  
    96   23   91 1  
    97   24   92 1  
    98   25   93 1  
    99   27   94 1  
   100   28   95 1  
   101   29   96 1  
   102   29   97 1  
   103   30   98 1  
   104   31   99 1  
   105   32  100 1  
   106   32  101 1  
   107   33  102 1  
   108   33  103 1  
   109   34  104 1  
   110   34  105 1  
   111   34  106 1  
   112   35  107 1  
   113   35  108 1  
   114   35  109 1  
   115   36  110 1  
   116   36  111 1  
   117   36  112 1  
   118   37  113 1  
   119   37  114 1  
   120   38  115 1  
   121   38  116 1  
   122   38  117 1  
   123   39  118 1  
   124   39  119 1  
   125   39  120 1  
   126   40  121 1  
   127   40  122 1  
   128   40  123 1  
   129   41  124 1  
   130   41  125 1  
   131   41  126 1  
   132   42  127 1  
   133   42  128 1  
   134   42  129 1  
   135   43  130 1  
   136   43  131 1  
   137   43  132 1  
   138   45  133 1  
   139   46  134 1  
   140   48  135 1  
   141   50  136 1  
   142   52  137 1  
   143   53  138 1  
   144   53  139 1  
   145   53  140 1  
   146   60  141 1  
   147   64  142 1  
   148   67  143 1  
@<TRIPOS>SUBSTRUCTURE
     1 587         1

