### 
### Created by X-TOOL on Mon Sep 10 21:12:47 2018
### 

@<TRIPOS>MOLECULE
1qq9_ligand
   20    19     1     0     0
SMALL
GAST_HUCK


@<TRIPOS>ATOM
      1 N          16.1610   15.7560   51.9030 N.4       1 MET         0.2327
      2 CA         15.0840   16.7390   51.5960 C.3       1 MET         0.0291
      3 C          13.8460   15.9300   51.3670 C.2       1 MET         0.0844
      4 O          12.7950   16.5100   51.4240 O.co2     1 MET        -0.5643
      5 CB         15.4010   17.5300   50.3170 C.3       1 MET         0.0114
      6 CG         16.1830   18.8460   50.5020 C.3       1 MET         0.0001
      7 SD         17.8520   18.6530   51.0630 S.3       1 MET        -0.1638
      8 CE         18.6140   17.8140   49.5560 C.3       1 MET        -0.0181
      9 OXT        13.8650   14.7210   51.1540 O.co2     1 MET        -0.5643
     10 H1         17.0262   16.2462   52.0679 H         1 MET         0.2010
     11 H2         16.2743   15.1273   51.1233 H         1 MET         0.2010
     12 H3         15.9111   15.2297   52.7255 H         1 MET         0.2010
     13 H4         14.9481   17.4329   52.4386 H         1 MET         0.1024
     14 H5         14.4460   17.7739   49.8287 H         1 MET         0.0347
     15 H6         15.9937   16.8781   49.6584 H         1 MET         0.0347
     16 H7         15.6450   19.4621   51.2375 H         1 MET         0.0379
     17 H8         16.2067   19.3678   49.5339 H         1 MET         0.0379
     18 H9         19.6799   17.6186   49.7450 H         1 MET         0.0340
     19 H10        18.5114   18.4708   48.6796 H         1 MET         0.0340
     20 H11        18.0953   16.8631   49.3643 H         1 MET         0.0340
@<TRIPOS>BOND
     1    2    3 1  
     2    2    5 1  
     3    2    1 1  
     4    5    6 1  
     5    6    7 1  
     6    7    8 1  
     7    3    9 ar 
     8    3    4 ar 
     9    1   10 1  
    10    1   11 1  
    11    1   12 1  
    12    2   13 1  
    13    5   14 1  
    14    5   15 1  
    15    6   16 1  
    16    6   17 1  
    17    8   18 1  
    18    8   19 1  
    19    8   20 1  
@<TRIPOS>SUBSTRUCTURE
     1 MET         1

