### 
### Created by X-TOOL on Mon Sep 10 21:12:47 2018
### 

@<TRIPOS>MOLECULE
1qr3_ligand
  132   136     1     0     0
SMALL
GAST_HUCK


@<TRIPOS>ATOM
      1 CA        -16.7450   18.0300   41.2070 C.3       1 ALQ         0.0431
      2 C         -15.9550   17.8560   39.9110 C.2       1 ALQ         0.1808
      3 O1        -15.3320   16.8530   39.6000 O.2       1 ALQ        -0.3967
      4 CB1       -15.9170   17.4220   42.3590 C.3       1 ALQ        -0.0456
      5 CB2       -18.0940   17.3320   41.1260 C.3       1 ALQ        -0.0456
      6 N         -15.9430   18.9220   39.1290 N.am      1 CIR        -0.2654
      7 CA        -15.0220   19.0160   37.9970 C.3       1 CIR         0.1310
      8 CB        -15.6970   19.8400   36.8860 C.3       1 CIR        -0.0106
      9 CG        -14.7390   20.4220   35.8350 C.3       1 CIR        -0.0287
     10 CD        -14.0510   19.4300   34.9050 C.3       1 CIR         0.0319
     11 NE        -12.8690   20.0280   34.2680 N.am      1 CIR        -0.2687
     12 C         -13.7100   19.7510   38.4660 C.2       1 CIR         0.2040
     13 O         -13.7670   20.9050   38.8730 O.2       1 CIR        -0.3944
     14 N         -12.5490   19.0530   38.3620 N.am      1 THR        -0.2607
     15 CA        -11.3120   19.7470   38.6520 C.3       1 THR         0.1663
     16 C         -10.9180   20.8040   37.6050 C.2       1 THR         0.2283
     17 O         -11.2560   20.7110   36.4320 O.2       1 THR        -0.3841
     18 CB        -10.0480   18.8100   38.8730 C.3       1 THR         0.1251
     19 OG1        -9.9740   17.8400   37.8380 O.3       1 THR        -0.2672
     20 CG2       -10.1700   18.1630   40.2140 C.3       1 THR        -0.0298
     21 N         -10.2070   21.8310   38.1710 N.am      1 DBU        -0.2364
     22 CA         -9.8660   23.0540   37.4160 C.2       1 DBU         0.1222
     23 C          -8.9000   22.9550   36.2820 C.2       1 DBU         0.2192
     24 O          -8.6830   23.9490   35.5930 O.2       1 DBU        -0.3894
     25 CB        -10.4160   24.2570   37.7240 C.2       1 DBU        -0.0646
     26 CG        -11.4430   24.4510   38.8250 C.3       1 DBU        -0.0492
     27 N          -8.2970   21.8050   36.0850 N.am      1 GLJ        -0.2655
     28 CA         -7.3230   21.6780   35.0020 C.3       1 GLJ         0.1306
     29 C          -7.9660   21.0660   33.6970 C.2       1 GLJ         0.2084
     30 O          -9.1650   21.2290   33.4200 O.2       1 GLJ        -0.3941
     31 CB         -6.0990   20.8930   35.5100 C.3       1 GLJ        -0.0082
     32 CG         -5.1570   20.7380   34.3240 C.3       1 GLJ        -0.0006
     33 CD         -5.7730   19.8840   33.2300 C.3       1 GLJ         0.1453
     34 OE         -6.1130   18.6080   33.7410 O.3       1 GLJ        -0.3697
     35 N          -7.1200   20.3580   32.8470 N.am      1 PHE        -0.2214
     36 CA         -7.6370   19.9960   31.5180 C.3       1 PHE         0.1459
     37 C          -7.4550   18.4830   31.2310 C.2       1 PHE         0.2086
     38 O          -6.4400   18.1230   30.6630 O.2       1 PHE        -0.3940
     39 CB         -6.8850   20.7480   30.4090 C.3       1 PHE         0.0217
     40 CG         -6.9610   22.2470   30.5730 C.ar      1 PHE        -0.0385
     41 CD1        -5.8900   22.8920   31.2370 C.ar      1 PHE        -0.0601
     42 CD2        -8.1110   22.9260   30.0880 C.ar      1 PHE        -0.0601
     43 CE1        -6.0510   24.2870   31.4250 C.ar      1 PHE        -0.0686
     44 CE2        -8.2300   24.3180   30.2890 C.ar      1 PHE        -0.0686
     45 CZ         -7.1890   24.9810   30.9590 C.ar      1 PHE        -0.0687
     46 N          -8.3770   17.5800   31.6340 N.am      1 TYJ        -0.2514
     47 CA         -9.5890   17.9500   32.3710 C.3       1 TYJ         0.1394
     48 C          -9.8850   17.3540   33.7360 C.2       1 TYJ         0.2057
     49 O         -11.0370   17.0970   34.0610 O.2       1 TYJ        -0.3942
     50 CN         -8.1990   16.1220   31.4360 C.3       1 TYJ         0.0256
     51 CB        -10.8040   17.7620   31.4840 C.3       1 TYJ         0.0104
     52 CG        -10.9390   18.9350   30.5780 C.ar      1 TYJ        -0.0357
     53 CD1       -11.3840   20.1600   31.1040 C.ar      1 TYJ         0.0500
     54 CD2       -10.5680   18.7830   29.2360 C.ar      1 TYJ        -0.0520
     55 CE1       -11.4940   21.2650   30.2760 C.ar      1 TYJ        -0.0272
     56 CE2       -10.6790   19.8990   28.4370 C.ar      1 TYJ         0.0942
     57 CZ1       -11.1180   21.1260   28.9490 C.ar      1 TYJ         0.0963
     58 OZ        -10.3200   19.7710   27.1190 O.3       1 TYJ        -0.3483
     59 OH1       -11.1630   22.2760   28.1420 O.3       1 TYJ        -0.3449
     60 NE        -11.6490   20.3650   32.4230 N.am      1 CIR        -0.2311
     61 CZ2       -12.8010   19.9500   32.9380 C.2       1 CIR         0.2824
     62 OH2       -13.6730   19.5030   32.2090 O.2       1 CIR        -0.3924
     63 N          -8.7720   17.2400   34.5010 N.am      1 VAL        -0.2620
     64 CA         -8.8690   16.8490   35.9170 C.3       1 VAL         0.1445
     65 C          -9.1200   18.0600   36.8660 C.2       1 VAL         0.2603
     66 O          -8.5700   19.0980   36.6710 O.2       1 VAL        -0.3678
     67 CB         -7.5930   16.1660   36.4220 C.3       1 VAL        -0.0049
     68 CG1        -7.9200   15.1490   37.5230 C.3       1 VAL        -0.0583
     69 CG2        -6.8170   15.5490   35.2830 C.3       1 VAL        -0.0583
     70 H1        -16.9065   19.1020   41.3934 H         1 ALQ         0.0532
     71 H2        -16.4665   17.5355   43.3051 H         1 ALQ         0.0257
     72 H3        -14.9511   17.9434   42.4312 H         1 ALQ         0.0257
     73 H4        -15.7433   16.3539   42.1617 H         1 ALQ         0.0257
     74 H5        -18.6828   17.7664   40.3047 H         1 ALQ         0.0257
     75 H6        -18.6339   17.4661   42.0750 H         1 ALQ         0.0257
     76 H7        -17.9410   16.2588   40.9397 H         1 ALQ         0.0257
     77 H8        -16.5735   19.6757   39.3145 H         1 CIR         0.1883
     78 H9        -14.7764   18.0106   37.6244 H         1 CIR         0.0800
     79 H10       -16.2329   20.6760   37.3591 H         1 CIR         0.0313
     80 H11       -16.4168   19.1892   36.3681 H         1 CIR         0.0313
     81 H12       -13.9534   20.9746   36.3712 H         1 CIR         0.0287
     82 H13       -15.3158   21.1190   35.2093 H         1 CIR         0.0287
     83 H14       -14.7605   19.1194   34.1239 H         1 CIR         0.0517
     84 H15       -13.7382   18.5506   35.4870 H         1 CIR         0.0517
     85 H16       -12.1513   20.4714   34.8050 H         1 CIR         0.1850
     86 H17       -12.5489   18.0897   38.0935 H         1 THR         0.1884
     87 H18       -11.4865   20.2787   39.5990 H         1 THR         0.0834
     88 H19        -9.1337   19.4211   38.8507 H         1 THR         0.0696
     89 H20        -9.3024   17.5090   40.3858 H         1 THR         0.0260
     90 H21       -11.0927   17.5652   40.2501 H         1 THR         0.0260
     91 H22       -10.2047   18.9384   40.9935 H         1 THR         0.0260
     92 H23        -9.9107   21.7496   39.1226 H         1 DBU         0.2212
     93 H24       -10.1037   25.1287   37.1508 H         1 DBU         0.0402
     94 H25       -11.7305   25.5116   38.8754 H         1 DBU         0.0344
     95 H26       -11.0108   24.1421   39.7882 H         1 DBU         0.0344
     96 H27       -12.3319   23.8400   38.6091 H         1 DBU         0.0344
     97 H28        -8.5026   21.0217   36.6716 H         1 GLJ         0.1871
     98 H29        -6.9790   22.6901   34.7425 H         1 GLJ         0.0799
     99 H30        -6.4091   19.9045   35.8797 H         1 GLJ         0.0314
    100 H31        -5.6017   21.4478   36.3193 H         1 GLJ         0.0314
    101 H32        -4.2263   20.2624   34.6669 H         1 GLJ         0.0313
    102 H33        -4.9308   21.7338   33.9150 H         1 GLJ         0.0313
    103 H34        -5.0925   19.8263   32.3677 H         1 GLJ         0.0869
    104 H35        -5.3255   18.1663   34.0366 H         1 GLJ         0.2122
    105 H36        -8.7062   20.2512   31.4761 H         1 PHE         0.0826
    106 H37        -7.3248   20.4767   29.4380 H         1 PHE         0.0474
    107 H38        -5.8281   20.4439   30.4307 H         1 PHE         0.0474
    108 H39        -5.0104   22.3573   31.5770 H         1 PHE         0.0557
    109 H40        -8.8899   22.3799   29.5683 H         1 PHE         0.0557
    110 H41        -5.2755   24.8394   31.9433 H         1 PHE         0.0599
    111 H42        -9.1001   24.8598   29.9363 H         1 PHE         0.0599
    112 H43        -7.2607   26.0502   31.1222 H         1 PHE         0.0559
    113 H44        -9.4854   19.0300   32.5521 H         1 TYJ         0.0820
    114 H45        -7.2694   15.9387   30.8772 H         1 TYJ         0.0488
    115 H46        -9.0526   15.7220   30.8690 H         1 TYJ         0.0488
    116 H47        -8.1428   15.6232   32.4148 H         1 TYJ         0.0488
    117 H48       -11.7051   17.6750   32.1089 H         1 TYJ         0.0423
    118 H49       -10.6835   16.8473   30.8850 H         1 TYJ         0.0423
    119 H50       -10.2120   17.8361   28.8466 H         1 TYJ         0.0416
    120 H51       -11.8634   22.2111   30.6548 H         1 TYJ         0.0378
    121 H52       -10.0506   18.8757   26.9509 H         1 TYJ         0.2394
    122 H53       -10.8847   22.0544   27.2611 H         1 TYJ         0.2418
    123 H54       -10.9781   20.8269   33.0031 H         1 CIR         0.2195
    124 H55        -7.8749   17.4235   34.0991 H         1 VAL         0.1885
    125 H56        -9.7099   16.1460   36.0104 H         1 VAL         0.0819
    126 H57        -6.9550   16.9420   36.8701 H         1 VAL         0.0344
    127 H58        -6.9911   14.6723   37.8694 H         1 VAL         0.0235
    128 H59        -8.5990   14.3814   37.1233 H         1 VAL         0.0235
    129 H60        -8.4042   15.6640   38.3658 H         1 VAL         0.0235
    130 H61        -6.6086   16.3166   34.5232 H         1 VAL         0.0235
    131 H62        -7.4089   14.7385   34.8327 H         1 VAL         0.0235
    132 H63        -5.8683   15.1425   35.6634 H         1 VAL         0.0235
@<TRIPOS>BOND
     1    1    5 1  
     2    1    4 1  
     3    2    1 1  
     4    2    3 2  
     5    7    6 1  
     6   12    7 1  
     7    7    8 1  
     8    8    9 1  
     9    9   10 1  
    10   10   11 1  
    11   12   13 2  
    12   16   15 1  
    13   15   18 1  
    14   15   14 1  
    15   18   19 1  
    16   18   20 1  
    17   16   17 2  
    18   22   21 am 
    19   22   25 2  
    20   23   22 1  
    21   23   24 2  
    22   25   26 1  
    23   28   27 1  
    24   28   31 1  
    25   29   28 1  
    26   29   30 2  
    27   31   32 1  
    28   32   33 1  
    29   33   34 1  
    30   36   37 1  
    31   36   39 1  
    32   35   36 1  
    33   39   40 1  
    34   40   42 ar 
    35   40   41 ar 
    36   41   43 ar 
    37   43   45 ar 
    38   44   45 ar 
    39   42   44 ar 
    40   37   38 2  
    41   46   50 1  
    42   47   46 1  
    43   51   47 1  
    44   47   48 1  
    45   48   49 2  
    46   52   51 1  
    47   52   54 ar 
    48   53   52 ar 
    49   60   53 1  
    50   53   55 ar 
    51   55   57 ar 
    52   57   59 1  
    53   57   56 ar 
    54   56   58 1  
    55   54   56 ar 
    56   61   60 am 
    57   61   62 2  
    58   65   64 1  
    59   64   67 1  
    60   64   63 1  
    61   67   68 1  
    62   67   69 1  
    63   65   66 2  
    64   19   65 1  
    65   11   61 am 
    66    6    2 am 
    67   14   12 am 
    68   21   16 am 
    69   27   23 am 
    70   29   35 am 
    71   33   35 1  
    72   46   37 am 
    73   63   48 am 
    74    1   70 1  
    75    4   71 1  
    76    4   72 1  
    77    4   73 1  
    78    5   74 1  
    79    5   75 1  
    80    5   76 1  
    81    6   77 1  
    82    7   78 1  
    83    8   79 1  
    84    8   80 1  
    85    9   81 1  
    86    9   82 1  
    87   10   83 1  
    88   10   84 1  
    89   11   85 1  
    90   14   86 1  
    91   15   87 1  
    92   18   88 1  
    93   20   89 1  
    94   20   90 1  
    95   20   91 1  
    96   21   92 1  
    97   25   93 1  
    98   26   94 1  
    99   26   95 1  
   100   26   96 1  
   101   27   97 1  
   102   28   98 1  
   103   31   99 1  
   104   31  100 1  
   105   32  101 1  
   106   32  102 1  
   107   33  103 1  
   108   34  104 1  
   109   36  105 1  
   110   39  106 1  
   111   39  107 1  
   112   41  108 1  
   113   42  109 1  
   114   43  110 1  
   115   44  111 1  
   116   45  112 1  
   117   47  113 1  
   118   50  114 1  
   119   50  115 1  
   120   50  116 1  
   121   51  117 1  
   122   51  118 1  
   123   54  119 1  
   124   55  120 1  
   125   58  121 1  
   126   59  122 1  
   127   60  123 1  
   128   63  124 1  
   129   64  125 1  
   130   67  126 1  
   131   68  127 1  
   132   68  128 1  
   133   68  129 1  
   134   69  130 1  
   135   69  131 1  
   136   69  132 1  
@<TRIPOS>SUBSTRUCTURE
     1 ALQ         1

