### 
### Created by X-TOOL on Mon Sep 10 21:12:47 2018
### 

@<TRIPOS>MOLECULE
1qs4_ligand
   28    30     1     0     0
SMALL
GAST_HUCK


@<TRIPOS>ATOM
      1 N1        -22.0490   32.0510   62.8710 N.2       1 100        -0.0483
      2 N3        -21.2990   32.3290   63.9980 N.2       1 100        -0.1639
      3 C3        -20.3680   31.4200   64.2750 C.2       1 100         0.2050
      4 N4        -20.5250   30.5340   63.2910 N.2       1 100        -0.1233
      5 N2        -21.5280   30.8530   62.4070 N.pl3     1 100        -0.0967
      6 C8        -19.3920   31.4210   65.4150 C.2       1 100         0.1786
      7 C9        -18.4230   30.3230   65.5050 C.3       1 100         0.0933
      8 O1        -19.4220   32.4020   66.3250 O.2       1 100        -0.3717
      9 C1        -14.8900   26.5850   69.6810 C.ar      1 100        -0.0617
     10 C2        -15.8100   27.5870   70.1230 C.ar      1 100         0.0234
     11 C10       -16.4280   28.4960   69.2020 C.ar      1 100        -0.0590
     12 C4        -16.1220   28.3870   67.7950 C.ar      1 100        -0.0085
     13 C5        -15.1930   27.3660   67.3470 C.ar      1 100         0.0697
     14 C6        -14.5770   26.4650   68.2840 C.ar      1 100        -0.0411
     15 C7        -16.5610   29.1220   66.6100 C.2       1 100         0.0360
     16 C12       -15.8990   28.5290   65.5150 C.2       1 100         0.0491
     17 N9        -15.0940   27.4950   65.9650 N.pl3     1 100        -0.2692
     18 C11       -17.4660   30.1840   66.6050 C.2       1 100         0.1242
     19 O2        -17.4510   30.9940   67.5080 O.2       1 100        -0.3946
     20 CL1       -16.1610   27.7000   71.8170 Cl        1 100        -0.0813
     21 H1        -21.8276   30.3180   61.5794 H         1 100         0.2976
     22 H2        -17.8207   30.3760   64.5861 H         1 100         0.0697
     23 H3        -19.0158   29.3964   65.5020 H         1 100         0.0697
     24 H4        -14.4293   25.9167   70.3995 H         1 100         0.0539
     25 H5        -17.1157   29.2549   69.5573 H         1 100         0.0545
     26 H6        -13.8850   25.7047   67.9402 H         1 100         0.0549
     27 H7        -16.0043   28.8365   64.4756 H         1 100         0.1072
     28 H8        -14.5047   26.9044   65.3610 H         1 100         0.2324
@<TRIPOS>BOND
     1    1    5 1  
     2    1    2 2  
     3    2    3 1  
     4    3    6 1  
     5    3    4 2  
     6    4    5 1  
     7    6    8 2  
     8    6    7 1  
     9    7   18 1  
    10   18   19 2  
    11   18   15 1  
    12   15   16 2  
    13   15   12 1  
    14   12   13 ar 
    15   12   11 ar 
    16   11   10 ar 
    17   10   20 1  
    18   10    9 ar 
    19    9   14 ar 
    20   14   13 ar 
    21   13   17 1  
    22   17   16 1  
    23    5   21 1  
    24    7   22 1  
    25    7   23 1  
    26    9   24 1  
    27   11   25 1  
    28   14   26 1  
    29   16   27 1  
    30   17   28 1  
@<TRIPOS>SUBSTRUCTURE
     1 100         1

