### 
### Created by X-TOOL on Mon Sep 10 21:12:47 2018
### 

@<TRIPOS>MOLECULE
1qti_ligand
   43    46     1     0     0
SMALL
GAST_HUCK


@<TRIPOS>ATOM
      1 C1          2.5530   67.3160   62.6050 C.2       1 GNT        -0.1096
      2 C2          2.7290   67.7550   61.3290 C.2       1 GNT        -0.0102
      3 C3          4.0990   67.8980   60.6750 C.3       1 GNT         0.1204
      4 C4          5.2170   68.0400   61.7620 C.3       1 GNT         0.0132
      5 C41         5.1000   66.9120   62.8380 C.3       1 GNT         0.0474
      6 C42         3.6940   66.9260   63.5830 C.3       1 GNT        -0.0342
      7 O5          5.2830   65.5770   62.2900 O.3       1 GNT        -0.3207
      8 C6          4.6660   63.3810   63.2290 C.ar      1 GNT         0.1316
      9 C7          3.8040   62.6760   64.1490 C.ar      1 GNT        -0.0294
     10 C8          2.8430   63.3810   64.9370 C.ar      1 GNT        -0.0558
     11 C9          1.6820   65.5880   65.6730 C.3       1 GNT         0.0028
     12 N10         2.2900   66.6590   66.5310 N.4       1 GNT         0.2457
     13 C11         2.5880   67.9390   65.7790 C.3       1 GNT        -0.0448
     14 C12         3.8370   67.8410   64.8550 C.3       1 GNT        -0.0567
     15 C13         4.5190   64.7850   63.1420 C.ar      1 GNT         0.1256
     16 C14         3.5760   65.4640   63.9210 C.ar      1 GNT        -0.0540
     17 C15         2.7100   64.7950   64.8430 C.ar      1 GNT        -0.0085
     18 C16         5.8720   61.3440   62.4200 C.3       1 GNT         0.0557
     19 O17         5.6390   62.7660   62.4180 O.3       1 GNT        -0.3249
     20 O18         4.3410   66.7390   59.8510 O.3       1 GNT        -0.3629
     21 C19         1.3860   66.9580   67.6870 C.3       1 GNT        -0.0415
     22 H1          1.5302   67.2315   62.9692 H         1 GNT         0.0348
     23 H2          1.8474   68.0173   60.7459 H         1 GNT         0.1347
     24 H3          4.1041   68.7979   60.0424 H         1 GNT         0.0969
     25 H4          5.1174   69.0185   62.2546 H         1 GNT         0.0354
     26 H5          6.2016   67.9726   61.2761 H         1 GNT         0.0354
     27 H6          5.8894   67.0896   63.5832 H         1 GNT         0.0473
     28 H7          3.8872   61.5993   64.2427 H         1 GNT         0.0642
     29 H8          2.2045   62.8298   65.6178 H         1 GNT         0.0492
     30 H9          0.9693   66.0611   64.9814 H         1 GNT         0.1005
     31 H10         1.1465   64.8833   66.3261 H         1 GNT         0.1005
     32 H11         3.1621   66.3042   66.8910 H         1 GNT         0.2047
     33 H12         2.7594   68.7413   66.5118 H         1 GNT         0.0800
     34 H13         1.7149   68.1894   65.1585 H         1 GNT         0.0800
     35 H14         4.0798   68.8572   64.5111 H         1 GNT         0.0132
     36 H15         4.6696   67.4491   65.4577 H         1 GNT         0.0132
     37 H16         6.6759   61.1032   61.7088 H         1 GNT         0.0570
     38 H17         4.9510   60.8211   62.1230 H         1 GNT         0.0570
     39 H18         6.1671   61.0222   63.4296 H         1 GNT         0.0570
     40 H19         4.3443   65.9602   60.3950 H         1 GNT         0.2168
     41 H20         1.1696   66.0281   68.2333 H         1 GNT         0.0778
     42 H21         0.4462   67.3918   67.3149 H         1 GNT         0.0778
     43 H22         1.8783   67.6736   68.3620 H         1 GNT         0.0778
@<TRIPOS>BOND
     1    1    2 2  
     2    6    1 1  
     3    3    2 1  
     4    4    3 1  
     5    3   20 1  
     6    5    4 1  
     7    5    6 1  
     8    7    5 1  
     9    6   14 1  
    10    6   16 1  
    11   15    7 1  
    12    9    8 ar 
    13    8   15 ar 
    14    8   19 1  
    15   10    9 ar 
    16   17   10 ar 
    17   11   12 1  
    18   17   11 1  
    19   12   13 1  
    20   12   21 1  
    21   13   14 1  
    22   15   16 ar 
    23   16   17 ar 
    24   19   18 1  
    25    1   22 1  
    26    2   23 1  
    27    3   24 1  
    28    4   25 1  
    29    4   26 1  
    30    5   27 1  
    31    9   28 1  
    32   10   29 1  
    33   11   30 1  
    34   11   31 1  
    35   12   32 1  
    36   13   33 1  
    37   13   34 1  
    38   14   35 1  
    39   14   36 1  
    40   18   37 1  
    41   18   38 1  
    42   18   39 1  
    43   20   40 1  
    44   21   41 1  
    45   21   42 1  
    46   21   43 1  
@<TRIPOS>SUBSTRUCTURE
     1 GNT         1

