### 
### Created by X-TOOL on Tue Oct 16 15:17:20 2018
### 

@<TRIPOS>MOLECULE
1qtn_ligand
   67    66     1     0     0
SMALL
GAST_HUCK


@<TRIPOS>ATOM
      1 C          -7.1860   31.9810   48.8980 C.2       1 ACE         0.1751
      2 O          -6.4440   32.7670   48.3130 O.2       1 ACE        -0.3972
      3 CH3        -7.2140   31.9300   50.4170 C.3       1 ACE         0.0258
      4 N          -7.9530   31.1000   48.2840 N.am      1 ACE        -0.2656
      5 CA         -8.0240   31.0360   46.8130 C.3       1 ACE         0.1334
      6 C          -8.6890   32.2830   46.2700 C.2       1 ACE         0.2042
      7 O          -9.5050   32.9260   46.9180 O.2       1 ACE        -0.3944
      8 CB         -8.8720   29.7980   46.4210 C.3       1 ACE        -0.0037
      9 CG1        -8.4730   29.2540   45.0490 C.3       1 ACE        -0.0491
     10 CG2       -10.3420   30.0660   46.5310 C.3       1 ACE        -0.0582
     11 CD1        -9.3150   28.0830   44.6370 C.3       1 ACE        -0.0648
     12 N          -8.2360   32.7080   45.0950 N.am      1 ACE        -0.2636
     13 CA         -8.7310   33.9090   44.4360 C.3       1 ACE         0.1325
     14 C          -9.2620   33.5640   43.0380 C.2       1 ACE         0.2041
     15 O          -8.9140   32.4840   42.5100 O.2       1 ACE        -0.3944
     16 CB         -7.6150   34.9550   44.3190 C.3       1 ACE        -0.0008
     17 CG         -7.0860   35.3600   45.7050 C.3       1 ACE         0.0044
     18 CD         -6.0700   36.4480   45.6790 C.2       1 ACE         0.0350
     19 OE1        -5.6130   36.9390   44.6390 O.co2     1 ACE        -0.5690
     20 OE2        -5.7090   36.9300   46.8300 O.co2     1 ACE        -0.5690
     21 N         -10.0650   34.4230   42.4790 N.am      1 ACE        -0.2613
     22 CA        -10.5910   34.2090   41.1470 C.3       1 ACE         0.1564
     23 C          -9.9040   35.1120   40.1380 C.2       1 ACE         0.2060
     24 O          -9.5160   36.2340   40.4330 O.2       1 ACE        -0.3943
     25 CB        -12.1090   34.4360   41.0830 C.3       1 ACE         0.0924
     26 OG1       -12.4350   35.7250   41.5660 O.3       1 ACE        -0.3874
     27 CG2       -12.8520   33.4120   41.8780 C.3       1 ACE        -0.0346
     28 C         -10.5950   35.9080   37.0360 C.2       1 ACE         0.0618
     29 N          -9.7940   34.6170   38.9100 N.am      1 ACE        -0.2679
     30 O         -10.2860   36.7480   35.9590 O.co2     1 ACE        -0.5665
     31 CA         -9.3830   35.4420   37.7790 C.3       1 ACE         0.1057
     32 CB         -8.4780   34.5900   36.8380 C.3       1 ACE         0.0351
     33 CG         -7.0470   34.5390   37.3480 C.2       1 ACE         0.0387
     34 OD1        -6.6410   35.3890   38.1580 O.co2     1 ACE        -0.5688
     35 OD2        -6.2830   33.6170   36.9380 O.co2     1 ACE        -0.5688
     36 OXT       -11.7890   35.4080   37.5700 O.co2     1 ACE        -0.5665
     37 H1         -7.9365   31.1681   50.7450 H         1 ACE         0.0467
     38 H2         -7.5127   32.9124   50.8114 H         1 ACE         0.0467
     39 H3         -6.2132   31.6725   50.7938 H         1 ACE         0.0467
     40 H4         -8.4978   30.4621   48.8283 H         1 ACE         0.1883
     41 H5         -7.0107   30.9455   46.3947 H         1 ACE         0.0803
     42 H6         -8.6409   29.0097   47.1525 H         1 ACE         0.0345
     43 H7         -7.4201   28.9377   45.0858 H         1 ACE         0.0267
     44 H8         -8.5896   30.0540   44.3031 H         1 ACE         0.0267
     45 H9        -10.5698   30.4540   47.5348 H         1 ACE         0.0235
     46 H10       -10.8985   29.1320   46.3639 H         1 ACE         0.0235
     47 H11       -10.6369   30.8088   45.7752 H         1 ACE         0.0235
     48 H12        -8.9910   27.7286   43.6474 H         1 ACE         0.0230
     49 H13       -10.3705   28.3890   44.5893 H         1 ACE         0.0230
     50 H14        -9.2010   27.2727   45.3721 H         1 ACE         0.0230
     51 H15        -7.5203   32.1772   44.6411 H         1 ACE         0.1883
     52 H16        -9.5515   34.3295   45.0360 H         1 ACE         0.0801
     53 H17        -8.0108   35.8469   43.8112 H         1 ACE         0.0330
     54 H18        -6.7883   34.5334   43.7285 H         1 ACE         0.0330
     55 H19        -6.6305   34.4744   46.1722 H         1 ACE         0.0433
     56 H20        -7.9376   35.6984   46.3134 H         1 ACE         0.0433
     57 H21       -10.3241   35.2485   42.9804 H         1 ACE         0.1884
     58 H22       -10.3893   33.1638   40.8697 H         1 ACE         0.0826
     59 H23       -12.4257   34.3607   40.0323 H         1 ACE         0.0639
     60 H24       -12.1470   35.8063   42.4676 H         1 ACE         0.2101
     61 H25       -13.9324   33.6068   41.8083 H         1 ACE         0.0257
     62 H26       -12.5370   33.4655   42.9306 H         1 ACE         0.0257
     63 H27       -12.6337   32.4099   41.4804 H         1 ACE         0.0257
     64 H28        -9.9990   33.6504   38.7563 H         1 ACE         0.1876
     65 H29        -8.8189   36.3136   38.1424 H         1 ACE         0.0745
     66 H30        -8.4847   35.0368   35.8329 H         1 ACE         0.0471
     67 H31        -8.8771   33.5663   36.7869 H         1 ACE         0.0471
@<TRIPOS>BOND
     1    1    2 2  
     2    1    3 1  
     3    4    1 am 
     4    5    4 1  
     5    6    5 1  
     6    5    8 1  
     7    6    7 2  
     8   12    6 am 
     9    8    9 1  
    10    8   10 1  
    11    9   11 1  
    12   13   12 1  
    13   14   13 1  
    14   13   16 1  
    15   14   15 2  
    16   21   14 am 
    17   16   17 1  
    18   17   18 1  
    19   18   19 ar 
    20   18   20 ar 
    21   22   21 1  
    22   23   22 1  
    23   22   25 1  
    24   23   24 2  
    25   29   23 am 
    26   25   26 1  
    27   25   27 1  
    28   28   30 ar 
    29   31   28 1  
    30   28   36 ar 
    31   29   31 1  
    32   31   32 1  
    33   32   33 1  
    34   33   34 ar 
    35   33   35 ar 
    36    3   37 1  
    37    3   38 1  
    38    3   39 1  
    39    4   40 1  
    40    5   41 1  
    41    8   42 1  
    42    9   43 1  
    43    9   44 1  
    44   10   45 1  
    45   10   46 1  
    46   10   47 1  
    47   11   48 1  
    48   11   49 1  
    49   11   50 1  
    50   12   51 1  
    51   13   52 1  
    52   16   53 1  
    53   16   54 1  
    54   17   55 1  
    55   17   56 1  
    56   21   57 1  
    57   22   58 1  
    58   25   59 1  
    59   26   60 1  
    60   27   61 1  
    61   27   62 1  
    62   27   63 1  
    63   29   64 1  
    64   31   65 1  
    65   32   66 1  
    66   32   67 1  
@<TRIPOS>SUBSTRUCTURE
     1 ACE         1

