### 
### Created by X-TOOL on Mon Sep 10 21:12:52 2018
### 

@<TRIPOS>MOLECULE
1qvt_ligand
   27    29     1     0     0
SMALL
GAST_HUCK


@<TRIPOS>ATOM
      1 C1        -61.7170  -45.6280    3.2670 C.ar      1 PRL        -0.0483
      2 C2        -61.8070  -45.7260    1.8910 C.ar      1 PRL        -0.0317
      3 C3        -62.9320  -46.2690    1.3150 C.ar      1 PRL         0.0415
      4 C4        -63.9730  -46.7140    2.0930 C.ar      1 PRL        -0.0313
      5 C5        -65.9230  -47.4550    6.3200 C.ar      1 PRL        -0.0313
      6 C6        -65.8820  -47.3820    7.6910 C.ar      1 PRL         0.0415
      7 C7        -64.7670  -46.8370    8.3240 C.ar      1 PRL        -0.0317
      8 C8        -63.6960  -46.3670    7.5790 C.ar      1 PRL        -0.0483
      9 C9        -62.6830  -45.9840    5.4360 C.ar      1 PRL        -0.0279
     10 N10       -64.9270  -47.0720    4.2210 N.ar      1 PRL        -0.3286
     11 C11       -63.8810  -46.6190    3.4600 C.ar      1 PRL         0.0162
     12 C12       -63.7330  -46.4410    6.2160 C.ar      1 PRL         0.0016
     13 C13       -62.7490  -46.0670    4.0640 C.ar      1 PRL         0.0016
     14 C14       -64.8680  -46.9910    5.5900 C.ar      1 PRL         0.0162
     15 N15       -63.0560  -46.3820   -0.0180 N.pl3     1 PRL        -0.3324
     16 N16       -66.9400  -47.8480    8.3890 N.pl3     1 PRL        -0.3324
     17 H1        -60.8288  -45.2031    3.7204 H         1 PRL         0.0666
     18 H2        -60.9927  -45.3756    1.2672 H         1 PRL         0.0587
     19 H3        -64.8588  -47.1362    1.6323 H         1 PRL         0.0438
     20 H4        -66.7875  -47.8783    5.8216 H         1 PRL         0.0438
     21 H5        -64.7365  -46.7800    9.4061 H         1 PRL         0.0587
     22 H6        -62.8320  -45.9421    8.0771 H         1 PRL         0.0666
     23 H7        -61.8051  -45.5589    5.9089 H         1 PRL         0.0848
     24 H8        -62.2969  -46.0596   -0.6350 H         1 PRL         0.1756
     25 H9        -63.9102  -46.7910   -0.4229 H         1 PRL         0.1756
     26 H10       -67.7501  -48.2454    7.8922 H         1 PRL         0.1756
     27 H11       -66.9369  -47.8060    9.4181 H         1 PRL         0.1756
@<TRIPOS>BOND
     1    1    2 ar 
     2   13    1 ar 
     3    2    3 ar 
     4    3    4 ar 
     5    3   15 1  
     6    4   11 ar 
     7    6    5 ar 
     8    5   14 ar 
     9    7    6 ar 
    10    6   16 1  
    11    8    7 ar 
    12   12    8 ar 
    13    9   12 ar 
    14    9   13 ar 
    15   11   10 ar 
    16   10   14 ar 
    17   11   13 ar 
    18   12   14 ar 
    19    1   17 1  
    20    2   18 1  
    21    4   19 1  
    22    5   20 1  
    23    7   21 1  
    24    8   22 1  
    25    9   23 1  
    26   15   24 1  
    27   15   25 1  
    28   16   26 1  
    29   16   27 1  
@<TRIPOS>SUBSTRUCTURE
     1 PRL         1

