### 
### Created by X-TOOL on Mon Sep 10 21:12:52 2018
### 

@<TRIPOS>MOLECULE
1qvu_ligand
   27    29     1     0     0
SMALL
GAST_HUCK


@<TRIPOS>ATOM
      1 H1        -60.8560  -44.7826    3.1228 H         1 PRL         0.0666
      2 H2        -61.3102  -45.1000    0.7117 H         1 PRL         0.0587
      3 H3        -65.1401  -46.7599    1.5912 H         1 PRL         0.0438
      4 H4        -66.6573  -47.2459    5.9998 H         1 PRL         0.0438
      5 H5        -64.2582  -45.9857    9.3073 H         1 PRL         0.0587
      6 H6        -62.4800  -45.2468    7.7629 H         1 PRL         0.0666
      7 H7        -61.6325  -44.9943    5.4548 H         1 PRL         0.0848
      8 H8        -62.8544  -45.8665   -0.9968 H         1 PRL         0.1756
      9 H9        -64.4404  -46.5499   -0.5493 H         1 PRL         0.1756
     10 H10       -67.4389  -47.4621    8.1755 H         1 PRL         0.1756
     11 H11       -66.4753  -46.9629    9.5914 H         1 PRL         0.1756
     12 C1        -61.7950  -45.2160    2.7980 C.ar      1 PRL        -0.0483
     13 C2        -62.0530  -45.3950    1.4440 C.ar      1 PRL        -0.0317
     14 C3        -63.2530  -45.9480    1.0220 C.ar      1 PRL         0.0415
     15 C4        -64.2050  -46.3280    1.9290 C.ar      1 PRL        -0.0313
     16 C5        -65.7480  -46.8040    6.3910 C.ar      1 PRL        -0.0313
     17 C6        -65.5820  -46.6520    7.7500 C.ar      1 PRL         0.0415
     18 C7        -64.3960  -46.0980    8.2380 C.ar      1 PRL        -0.0317
     19 C8        -63.3880  -45.6880    7.3680 C.ar      1 PRL        -0.0483
     20 C9        -62.5540  -45.4360    5.0930 C.ar      1 PRL        -0.0279
     21 N10       -64.9400  -46.5550    4.1690 N.ar      1 PRL        -0.3286
     22 C11       -63.9650  -46.1570    3.2750 C.ar      1 PRL         0.0162
     23 C12       -63.5410  -45.8410    6.0110 C.ar      1 PRL         0.0016
     24 C13       -62.7500  -45.5970    3.7310 C.ar      1 PRL         0.0016
     25 C14       -64.7510  -46.3910    5.5290 C.ar      1 PRL         0.0162
     26 N15       -63.5380  -46.1360   -0.2750 N.pl3     1 PRL        -0.3324
     27 N16       -66.5780  -47.0580    8.5710 N.pl3     1 PRL        -0.3324
@<TRIPOS>BOND
     1   12    1 1  
     2   13    2 1  
     3   15    3 1  
     4   16    4 1  
     5   18    5 1  
     6   19    6 1  
     7   20    7 1  
     8   26    8 1  
     9   26    9 1  
    10   27   10 1  
    11   27   11 1  
    12   12   13 ar 
    13   24   12 ar 
    14   13   14 ar 
    15   15   14 ar 
    16   14   26 1  
    17   22   15 ar 
    18   16   17 ar 
    19   17   18 ar 
    20   18   19 ar 
    21   24   22 ar 
    22   17   27 1  
    23   23   25 ar 
    24   25   21 ar 
    25   25   16 ar 
    26   20   24 ar 
    27   20   23 ar 
    28   23   19 ar 
    29   22   21 ar 
@<TRIPOS>SUBSTRUCTURE
     1 PRL         1

