### 
### Created by X-TOOL on Mon Sep 10 21:12:51 2018
### 

@<TRIPOS>MOLECULE
1qw7_ligand
   35    35     1     0     0
SMALL
GAST_HUCK


@<TRIPOS>ATOM
      1 C1         30.8390   11.0220   -4.8710 C.ar      1 EBP        -0.0250
      2 C2         29.4360   11.3290   -4.6990 C.ar      1 EBP        -0.0649
      3 C3         28.4050   10.7800   -5.6010 C.ar      1 EBP        -0.0670
      4 C4         28.8350    9.9310   -6.6580 C.ar      1 EBP        -0.0528
      5 C5         30.1870    9.6320   -6.8170 C.ar      1 EBP        -0.0670
      6 C6         31.2150   10.1750   -5.9200 C.ar      1 EBP        -0.0649
      7 C7         31.8810   11.6210   -3.9330 C.3       1 EBP         0.1044
      8 C8         27.8160    9.3660   -7.6080 C.3       1 EBP        -0.0343
      9 C9         34.6050   11.0510   -5.4570 C.3       1 EBP         0.0895
     10 C10        35.9960   11.4240   -5.1000 C.3       1 EBP        -0.0350
     11 C11        32.1190   15.2480   -5.4460 C.3       1 EBP         0.0895
     12 C12        31.3440   15.9500   -4.3710 C.3       1 EBP        -0.0350
     13 P          32.7920   12.8840   -4.4960 P.3       1 EBP         0.2833
     14 O1         33.7530   12.2560   -5.6230 O.3       1 EBP        -0.2317
     15 O2         31.8390   13.8080   -5.2910 O.3       1 EBP        -0.2317
     16 O3         33.5080   13.5690   -3.4280 O.2       1 EBP        -0.5338
     17 H1         29.1339   11.9795   -3.8862 H         1 EBP         0.0540
     18 H2         27.3560   11.0157   -5.4627 H         1 EBP         0.0540
     19 H3         30.4889    8.9786   -7.6276 H         1 EBP         0.0540
     20 H4         32.2583    9.9215   -6.0693 H         1 EBP         0.0540
     21 H5         32.5751   10.8140   -3.6556 H         1 EBP         0.0696
     22 H6         31.3509   11.9733   -3.0359 H         1 EBP         0.0696
     23 H7         26.8132    9.7139   -7.3194 H         1 EBP         0.0378
     24 H8         27.8481    8.2672   -7.5692 H         1 EBP         0.0378
     25 H9         28.0410    9.7036   -8.6304 H         1 EBP         0.0378
     26 H10        34.1856   10.4221   -4.6579 H         1 EBP         0.0635
     27 H11        34.6157   10.4861   -6.4008 H         1 EBP         0.0635
     28 H12        36.6016   10.5131   -4.9840 H         1 EBP         0.0257
     29 H13        35.9938   11.9857   -4.1542 H         1 EBP         0.0257
     30 H14        36.4239   12.0497   -5.8971 H         1 EBP         0.0257
     31 H15        33.1953   15.4409   -5.3264 H         1 EBP         0.0635
     32 H16        31.7924   15.5941   -6.4377 H         1 EBP         0.0635
     33 H17        31.5183   17.0338   -4.4416 H         1 EBP         0.0257
     34 H18        31.6741   15.5890   -3.3857 H         1 EBP         0.0257
     35 H19        30.2712   15.7422   -4.4971 H         1 EBP         0.0257
@<TRIPOS>BOND
     1    1    2 ar 
     2    1    6 ar 
     3    7    1 1  
     4    2    3 ar 
     5    3    4 ar 
     6    5    4 ar 
     7    4    8 1  
     8    6    5 ar 
     9   13    7 1  
    10    9   10 1  
    11   14    9 1  
    12   11   12 1  
    13   15   11 1  
    14   13   14 1  
    15   13   15 1  
    16   13   16 2  
    17    2   17 1  
    18    3   18 1  
    19    5   19 1  
    20    6   20 1  
    21    7   21 1  
    22    7   22 1  
    23    8   23 1  
    24    8   24 1  
    25    8   25 1  
    26    9   26 1  
    27    9   27 1  
    28   10   28 1  
    29   10   29 1  
    30   10   30 1  
    31   11   31 1  
    32   11   32 1  
    33   12   33 1  
    34   12   34 1  
    35   12   35 1  
@<TRIPOS>SUBSTRUCTURE
     1 EBP         1

