### 
### Created by X-TOOL on Mon Sep 10 21:12:49 2018
### 

@<TRIPOS>MOLECULE
1qwu_ligand
   23    23     1     0     0
SMALL
GAST_HUCK


@<TRIPOS>ATOM
      1 C5         30.3620   66.0770    6.6520 C.3       1 GUL         0.2622
      2 C2         32.4770   65.7760    8.8070 C.3       1 GUL         0.1070
      3 F1         29.6860   65.5500    5.7770 F         1 GUL        -0.2055
      4 O2         33.4980   65.4240    9.5600 O.3       1 GUL        -0.3869
      5 C3         32.8450   66.4910    7.4470 C.3       1 GUL         0.1144
      6 O3         34.1240   66.1290    6.9930 O.3       1 GUL        -0.3864
      7 C4         31.8710   66.5730    6.1380 C.3       1 GUL         0.1440
      8 O4         31.6410   67.5950    5.3770 O.3       1 GUL        -0.3834
      9 C6         29.4220   67.1420    7.3000 C.3       1 GUL         0.1055
     10 O6         28.5530   66.9110    7.9970 O.3       1 GUL        -0.3893
     11 O          30.3510   65.0050    7.7570 O.3       1 GUL        -0.3384
     12 C1         31.5720   64.5480    8.3260 C.3       1 GUL         0.0798
     13 H1         31.8629   66.4603    9.4108 H         1 GUL         0.0643
     14 H2         34.0005   66.1963    9.7914 H         1 GUL         0.2100
     15 H3         32.9292   67.5432    7.7564 H         1 GUL         0.0648
     16 H4         34.7711   66.3753    7.6434 H         1 GUL         0.2100
     17 H5         32.2791   65.8136    5.4548 H         1 GUL         0.0678
     18 H6         32.4561   67.8873    4.9863 H         1 GUL         0.2101
     19 H7         28.9819   67.6953    6.4573 H         1 GUL         0.0615
     20 H8         30.0851   67.8091    7.8703 H         1 GUL         0.0615
     21 H9         28.8775   66.4583    8.7666 H         1 GUL         0.2096
     22 H10        31.3475   63.9064    9.1909 H         1 GUL         0.0588
     23 H11        32.1246   63.9676    7.5725 H         1 GUL         0.0588
@<TRIPOS>BOND
     1    1    3 1  
     2    7    1 1  
     3    1    9 1  
     4    1   11 1  
     5    2    4 1  
     6    5    2 1  
     7    2   12 1  
     8    5    6 1  
     9    5    7 1  
    10    7    8 1  
    11    9   10 1  
    12   11   12 1  
    13    2   13 1  
    14    4   14 1  
    15    5   15 1  
    16    6   16 1  
    17    7   17 1  
    18    8   18 1  
    19    9   19 1  
    20    9   20 1  
    21   10   21 1  
    22   12   22 1  
    23   12   23 1  
@<TRIPOS>SUBSTRUCTURE
     1 GUL         1

