### 
### Created by X-TOOL on Mon Sep 10 21:12:49 2018
### 

@<TRIPOS>MOLECULE
1qx1_ligand
   22    22     1     0     0
SMALL
GAST_HUCK


@<TRIPOS>ATOM
      1 C5         30.3870   66.4620    7.2340 C.3       1 FMF         0.1100
      2 C2         32.2910   65.9040    9.0360 C.3       1 FMF         0.1523
      3 F2         33.3520   65.3690    9.6520 F         1 FMF        -0.2403
      4 C3         32.7010   66.6330    7.6630 C.3       1 FMF         0.1166
      5 O3         33.9650   66.0100    7.2230 O.3       1 FMF        -0.3862
      6 C4         31.6790   66.6650    6.4760 C.3       1 FMF         0.1120
      7 O4         31.7960   67.8420    5.8330 O.3       1 FMF        -0.3865
      8 C6         29.3220   66.4620    6.2290 C.3       1 FMF         0.0729
      9 O6         28.0570   66.5860    6.9410 O.3       1 FMF        -0.3924
     10 O          30.3670   65.1950    7.8500 O.3       1 FMF        -0.3687
     11 C1         31.1960   64.8820    8.8970 C.3       1 FMF         0.0818
     12 H1         30.2411   67.2583    7.9787 H         1 FMF         0.0646
     13 H2         31.8997   66.6920    9.6962 H         1 FMF         0.0701
     14 H3         32.9011   67.6848    7.9152 H         1 FMF         0.0650
     15 H4         34.2482   66.4112    6.4098 H         1 FMF         0.2100
     16 H5         31.8454   65.8457    5.7611 H         1 FMF         0.0647
     17 H6         32.6807   67.9324    5.4988 H         1 FMF         0.2100
     18 H7         29.3425   65.5219    5.6583 H         1 FMF         0.0584
     19 H8         29.4523   67.3110    5.5419 H         1 FMF         0.0584
     20 H9         27.9561   65.8517    7.5353 H         1 FMF         0.2095
     21 H10        31.6455   63.8941    8.7181 H         1 FMF         0.0589
     22 H11        30.6084   64.8546    9.8265 H         1 FMF         0.0589
@<TRIPOS>BOND
     1    6    1 1  
     2    1    8 1  
     3    1   10 1  
     4    2    3 1  
     5    4    2 1  
     6    4    5 1  
     7    6    4 1  
     8    6    7 1  
     9    8    9 1  
    10   10   11 1  
    11   11    2 1  
    12    1   12 1  
    13    2   13 1  
    14    4   14 1  
    15    5   15 1  
    16    6   16 1  
    17    7   17 1  
    18    8   18 1  
    19    8   19 1  
    20    9   20 1  
    21   11   21 1  
    22   11   22 1  
@<TRIPOS>SUBSTRUCTURE
     1 FMF         1

