### 
### Created by X-TOOL on Mon Sep 10 21:12:50 2018
### 

@<TRIPOS>MOLECULE
1qxk_ligand
   66    67     1     0     0
SMALL
GAST_HUCK


@<TRIPOS>ATOM
      1 C1         34.4080   30.0010   19.7020 C.ar      1 429         0.1102
      2 C2         33.7610   28.9820   20.4480 C.ar      1 429         0.1146
      3 C3         32.3340   28.9530   20.5010 C.ar      1 429        -0.0478
      4 C4         31.5840   29.9230   19.8090 C.ar      1 429        -0.0799
      5 C5         32.2310   30.9430   19.0530 C.ar      1 429        -0.0582
      6 C6         33.6480   30.9680   19.0090 C.ar      1 429        -0.0398
      7 O5         34.5820   28.0540   21.0920 O.3       1 429        -0.3121
      8 C9         31.3770   31.7290   16.7440 C.3       1 429         0.1386
      9 N1         30.5880   32.7730   16.0700 N.am      1 429        -0.2643
     10 C10        30.8620   33.1910   14.8150 C.2       1 429         0.1752
     11 C11        30.7230   30.3610   16.4260 C.2       1 429         0.2035
     12 N2         29.3920   30.3480   16.6890 N.am      1 429        -0.2849
     13 C12        28.7460   29.2060   17.3290 C.3       1 429         0.0310
     14 C13        27.4550   29.6820   18.0040 C.3       1 429        -0.0303
     15 C14        26.3390   30.6290   20.0860 C.3       1 429         0.0720
     16 C15        27.6500   30.1510   19.4620 C.3       1 429        -0.0229
     17 O1         25.9830   29.7510   21.1470 O.3       1 429        -0.3150
     18 O4         31.9830   33.4070   14.3590 O.2       1 429        -0.3972
     19 C23        29.6010   33.3810   13.9670 C.3       1 429         0.0258
     20 C8         34.1860   27.6790   22.3930 C.3       1 429         0.1186
     21 O8         31.3670   29.4170   15.9840 O.2       1 429        -0.3944
     22 C7         31.4210   31.9840   18.2930 C.3       1 429         0.0139
     23 C24        35.0890   26.5600   22.8380 C.2       1 429         0.0646
     24 O6         36.0330   27.0090   23.6830 O.co2     1 429        -0.5663
     25 O7         34.9880   25.4290   22.4870 O.co2     1 429        -0.5663
     26 C32        24.6570   29.8370   21.6320 C.ar      1 429         0.1061
     27 C33        23.9960   31.1030   21.8360 C.ar      1 429        -0.0375
     28 C34        22.6710   31.1650   22.3230 C.ar      1 429        -0.0744
     29 C35        21.9780   29.9710   22.6200 C.ar      1 429        -0.0377
     30 C36        22.5950   28.7110   22.4340 C.ar      1 429         0.1026
     31 C37        23.9400   28.6200   21.9410 C.ar      1 429         0.1181
     32 C38        24.5450   27.2720   21.7650 C.2       1 429         0.2509
     33 O11        24.6140   26.4980   22.6920 O.2       1 429        -0.3702
     34 O12        24.9990   26.9780   20.5380 O.3       1 429        -0.2845
     35 C39        25.5920   25.6820   20.3250 C.3       1 429         0.0641
     36 O13        21.8470   27.5910   22.7510 O.3       1 429        -0.3301
     37 O2         35.7900   30.0380   19.6450 O.3       1 429        -0.3385
     38 H1         31.8284   28.1842   21.0740 H         1 429         0.0493
     39 H2         30.5012   29.8935   19.8518 H         1 429         0.0436
     40 H3         34.1532   31.7379   18.4371 H         1 429         0.0450
     41 H4         32.4056   31.7399   16.3543 H         1 429         0.0821
     42 H5         29.8209   33.1881   16.5592 H         1 429         0.1884
     43 H6         28.8386   31.1421   16.4377 H         1 429         0.1851
     44 H7         29.4203   28.7751   18.0837 H         1 429         0.0520
     45 H8         28.5080   28.4441   16.5722 H         1 429         0.0520
     46 H9         26.7350   28.8504   18.0007 H         1 429         0.0285
     47 H10        27.0482   30.5216   17.4212 H         1 429         0.0285
     48 H11        26.4678   31.6484   20.4786 H         1 429         0.0617
     49 H12        25.5458   30.6270   19.3239 H         1 429         0.0617
     50 H13        28.3734   30.9796   19.4756 H         1 429         0.0292
     51 H14        28.0419   29.3123   20.0562 H         1 429         0.0292
     52 H15        29.8842   33.7205   12.9598 H         1 429         0.0467
     53 H16        28.9519   34.1336   14.4386 H         1 429         0.0467
     54 H17        29.0611   32.4254   13.8935 H         1 429         0.0467
     55 H18        33.1408   27.3362   22.3829 H         1 429         0.0777
     56 H19        34.2846   28.5351   23.0766 H         1 429         0.0777
     57 H20        31.8688   32.9728   18.4712 H         1 429         0.0451
     58 H21        30.3905   31.9734   18.6777 H         1 429         0.0451
     59 H22        24.5248   32.0223   21.6119 H         1 429         0.0464
     60 H23        22.1886   32.1249   22.4680 H         1 429         0.0600
     61 H24        20.9620   30.0201   22.9947 H         1 429         0.0464
     62 H25        25.9128   25.5934   19.2765 H         1 429         0.0574
     63 H26        24.8527   24.8991   20.5496 H         1 429         0.0574
     64 H27        26.4632   25.5642   20.9861 H         1 429         0.0574
     65 H28        20.9893   27.8608   23.0576 H         1 429         0.2507
     66 H29        36.1463   29.3243   20.1609 H         1 429         0.2442
@<TRIPOS>BOND
     1    1    2 ar 
     2    6    1 ar 
     3    1   37 1  
     4    3    2 ar 
     5    2    7 1  
     6    4    3 ar 
     7    5    4 ar 
     8    5    6 ar 
     9   22    5 1  
    10    7   20 1  
    11    8    9 1  
    12   11    8 1  
    13    8   22 1  
    14    9   10 am 
    15   10   18 2  
    16   10   19 1  
    17   12   11 am 
    18   11   21 2  
    19   13   12 1  
    20   14   13 1  
    21   16   14 1  
    22   20   23 1  
    23   23   24 ar 
    24   23   25 ar 
    25   26   27 ar 
    26   26   31 ar 
    27   27   28 ar 
    28   28   29 ar 
    29   30   29 ar 
    30   31   30 ar 
    31   30   36 1  
    32   31   32 1  
    33   32   33 2  
    34   32   34 1  
    35   34   35 1  
    36   17   26 1  
    37   15   17 1  
    38   16   15 1  
    39    3   38 1  
    40    4   39 1  
    41    6   40 1  
    42    8   41 1  
    43    9   42 1  
    44   12   43 1  
    45   13   44 1  
    46   13   45 1  
    47   14   46 1  
    48   14   47 1  
    49   15   48 1  
    50   15   49 1  
    51   16   50 1  
    52   16   51 1  
    53   19   52 1  
    54   19   53 1  
    55   19   54 1  
    56   20   55 1  
    57   20   56 1  
    58   22   57 1  
    59   22   58 1  
    60   27   59 1  
    61   28   60 1  
    62   29   61 1  
    63   35   62 1  
    64   35   63 1  
    65   35   64 1  
    66   36   65 1  
    67   37   66 1  
@<TRIPOS>SUBSTRUCTURE
     1 429         1

