### 
### Created by X-TOOL on Mon Sep 10 21:12:52 2018
### 

@<TRIPOS>MOLECULE
1qxl_ligand
   66    69     1     0     0
SMALL
GAST_HUCK


@<TRIPOS>ATOM
      1 C1         51.6200   54.4570   20.8610 C.2       1 FR8         0.0642
      2 N2         51.7420   55.4290   21.9490 N.pl3     1 FR8        -0.2369
      3 C3         51.7530   54.7620   23.0990 C.2       1 FR8         0.1035
      4 N4         51.7180   53.4410   22.8880 N.2       1 FR8        -0.3095
      5 C5         51.5590   53.2580   21.4380 C.2       1 FR8         0.0902
      6 C8         51.3510   51.9560   20.7490 C.2       1 FR8         0.1892
      7 O9         51.1170   51.9070   19.5500 O.2       1 FR8        -0.3981
      8 N10        51.4620   50.8560   21.4520 N.am      1 FR8        -0.3040
      9 C13        51.7290   56.8740   21.8040 C.3       1 FR8         0.0975
     10 C14        53.1720   57.4710   21.7480 C.3       1 FR8         0.0758
     11 O15        54.0170   56.8090   22.7800 O.3       1 FR8        -0.3918
     12 C18        50.8830   57.2580   20.5730 C.3       1 FR8         0.0073
     13 C19        49.3530   57.1200   20.8080 C.3       1 FR8         0.0529
     14 N22        48.6800   57.3870   19.5050 N.pl3     1 FR8        -0.2726
     15 C27        48.0790   58.5510   19.1000 C.2       1 FR8         0.0169
     16 C28        47.5980   58.3980   17.8000 C.2       1 FR8        -0.0726
     17 C29        47.9190   57.0630   17.3840 C.ar      1 FR8        -0.0393
     18 C30        48.5830   56.4510   18.4910 C.ar      1 FR8         0.0518
     19 C31        47.7070   56.3650   16.2330 C.ar      1 FR8        -0.0827
     20 C32        48.1520   55.0500   16.1290 C.ar      1 FR8        -0.0536
     21 C33        48.8100   54.4380   17.2310 C.ar      1 FR8         0.0531
     22 C34        49.0050   55.1640   18.3980 C.ar      1 FR8        -0.0247
     23 N1         49.3280   53.1940   17.2310 N.am      1 FR8        -0.2393
     24 C2         49.0430   52.2480   16.3380 C.2       1 FR8         0.2022
     25 O1         48.4270   52.3840   15.3020 O.2       1 FR8        -0.3855
     26 C4         49.5660   50.9080   16.7700 C.3       1 FR8         0.0431
     27 C6         48.4510   49.8730   16.8750 C.3       1 FR8        -0.0338
     28 C7         46.3970   47.1670   16.2550 C.ar      1 FR8        -0.0603
     29 C11        46.8070   47.4600   17.5560 C.ar      1 FR8        -0.0430
     30 C9         45.8770   47.5770   18.5710 C.ar      1 FR8        -0.0603
     31 C12        44.5550   47.2890   18.2950 C.ar      1 FR8        -0.0686
     32 C10        44.1590   46.9370   17.0080 C.ar      1 FR8        -0.0687
     33 C15        45.0680   46.8990   15.9670 C.ar      1 FR8        -0.0686
     34 C16        48.6290   49.0290   18.1250 C.3       1 FR8        -0.0412
     35 C17        48.2440   47.5900   17.8670 C.3       1 FR8        -0.0190
     36 H1         51.5859   54.6713   19.7938 H         1 FR8         0.0990
     37 H2         51.7861   55.2288   24.0823 H         1 FR8         0.1238
     38 H3         51.3273   49.9671   21.0142 H         1 FR8         0.1799
     39 H4         51.6815   50.9053   22.4264 H         1 FR8         0.1799
     40 H5         51.2370   57.2964   22.6926 H         1 FR8         0.0690
     41 H6         53.1305   58.5524   21.9451 H         1 FR8         0.0589
     42 H7         53.6039   57.2961   20.7516 H         1 FR8         0.0589
     43 H8         54.0511   55.8752   22.6084 H         1 FR8         0.2095
     44 H9         51.1676   56.6031   19.7363 H         1 FR8         0.0323
     45 H10        51.1026   58.3036   20.3114 H         1 FR8         0.0323
     46 H11        49.0201   57.8501   21.5604 H         1 FR8         0.0599
     47 H12        49.1151   56.1031   21.1534 H         1 FR8         0.0599
     48 H13        47.9909   59.4551   19.7006 H         1 FR8         0.0873
     49 H14        47.0764   59.1509   17.2109 H         1 FR8         0.0266
     50 H15        47.1933   56.8324   15.4007 H         1 FR8         0.0519
     51 H16        47.9974   54.4945   15.2111 H         1 FR8         0.0441
     52 H17        49.4991   54.6988   19.2433 H         1 FR8         0.0398
     53 H18        49.9759   52.9636   17.9570 H         1 FR8         0.2239
     54 H19        50.0476   51.0137   17.7533 H         1 FR8         0.0507
     55 H20        50.3064   50.5605   16.0344 H         1 FR8         0.0507
     56 H21        48.4777   49.2203   15.9900 H         1 FR8         0.0291
     57 H22        47.4806   50.3889   16.9211 H         1 FR8         0.0291
     58 H23        47.1298   47.1487   15.4564 H         1 FR8         0.0557
     59 H24        46.1791   47.8887   19.5643 H         1 FR8         0.0557
     60 H25        43.8183   47.3376   19.0887 H         1 FR8         0.0599
     61 H26        43.1210   46.6886   16.8187 H         1 FR8         0.0559
     62 H27        44.7511   46.6668   14.9567 H         1 FR8         0.0599
     63 H28        47.9925   49.4335   18.9257 H         1 FR8         0.0289
     64 H29        49.6826   49.0686   18.4387 H         1 FR8         0.0289
     65 H30        48.8292   47.2109   17.0163 H         1 FR8         0.0426
     66 H31        48.4708   46.9936   18.7630 H         1 FR8         0.0426
@<TRIPOS>BOND
     1    2    1 1  
     2    1    5 2  
     3    2    3 1  
     4    9    2 1  
     5    3    4 2  
     6    4    5 1  
     7    5    6 1  
     8    6    7 2  
     9    6    8 am 
    10    9   10 1  
    11   12    9 1  
    12   10   11 1  
    13   13   12 1  
    14   14   13 1  
    15   14   15 1  
    16   18   14 1  
    17   16   15 2  
    18   17   16 1  
    19   18   17 ar 
    20   19   17 ar 
    21   22   18 ar 
    22   20   19 ar 
    23   21   20 ar 
    24   21   22 ar 
    25   23   21 1  
    26   24   23 am 
    27   24   25 2  
    28   26   24 1  
    29   27   26 1  
    30   34   27 1  
    31   29   28 ar 
    32   28   33 ar 
    33   29   30 ar 
    34   35   29 1  
    35   30   31 ar 
    36   31   32 ar 
    37   33   32 ar 
    38   34   35 1  
    39    1   36 1  
    40    3   37 1  
    41    8   38 1  
    42    8   39 1  
    43    9   40 1  
    44   10   41 1  
    45   10   42 1  
    46   11   43 1  
    47   12   44 1  
    48   12   45 1  
    49   13   46 1  
    50   13   47 1  
    51   15   48 1  
    52   16   49 1  
    53   19   50 1  
    54   20   51 1  
    55   22   52 1  
    56   23   53 1  
    57   26   54 1  
    58   26   55 1  
    59   27   56 1  
    60   27   57 1  
    61   28   58 1  
    62   30   59 1  
    63   31   60 1  
    64   32   61 1  
    65   33   62 1  
    66   34   63 1  
    67   34   64 1  
    68   35   65 1  
    69   35   66 1  
@<TRIPOS>SUBSTRUCTURE
     1 FR8         1

