### 
### Created by X-TOOL on Mon Sep 10 21:12:51 2018
### 

@<TRIPOS>MOLECULE
1qxw_ligand
   38    38     1     0     0
SMALL
GAST_HUCK


@<TRIPOS>ATOM
      1 C13         6.8160    3.3480   -6.8150 C.3       1 M1C        -0.0046
      2 C12         7.6850    4.3000   -6.0070 C.3       1 M1C        -0.0046
      3 C11         6.1690    4.4680   -6.0000 C.3       1 M1C        -0.0221
      4 N3          3.4100    2.9550   -1.2110 N.4       1 M1C         0.2247
      5 C2          3.7630    3.5080   -2.5160 C.3       1 M1C         0.0359
      6 C1          5.0630    4.2870   -2.3390 C.3       1 M1C         0.2502
      7 C9          5.6040    4.8850   -3.6380 C.3       1 M1C         0.0274
      8 N10         5.6090    3.9610   -4.7540 N.4       1 M1C         0.2331
      9 O8          6.0480    3.4360   -1.7200 O.3       1 M1C        -0.3566
     10 O14         4.8170    5.3880   -1.4750 O.3       1 M1C        -0.3566
     11 C4          2.6310    4.3920   -3.0590 C.3       1 M1C        -0.0046
     12 C5          1.3670    3.6040   -3.3820 C.3       1 M1C        -0.0480
     13 C6          0.2930    4.4930   -4.0190 C.3       1 M1C        -0.0557
     14 C7         -0.8560    3.6760   -4.5710 C.3       1 M1C        -0.0653
     15 H1          6.7041    2.3011   -6.4966 H         1 M1C         0.0322
     16 H2          6.8192    3.3988   -7.9138 H         1 M1C         0.0322
     17 H3          8.3171    5.0382   -6.5223 H         1 M1C         0.0322
     18 H4          8.2020    3.9404   -5.1051 H         1 M1C         0.0322
     19 H5          5.6322    5.3229   -6.4370 H         1 M1C         0.0850
     20 H6          2.5523    2.4312   -1.2889 H         1 M1C         0.1999
     21 H7          3.2862    3.7060   -0.5502 H         1 M1C         0.1999
     22 H8          4.1478    2.3461   -0.8934 H         1 M1C         0.1999
     23 H9          3.9310    2.6852   -3.2264 H         1 M1C         0.0905
     24 H10         6.6368    5.2196   -3.4612 H         1 M1C         0.0869
     25 H11         4.9795    5.7496   -3.9074 H         1 M1C         0.0869
     26 H12         6.1446    3.1516   -4.4819 H         1 M1C         0.2018
     27 H13         4.6552    3.6882   -4.9329 H         1 M1C         0.2018
     28 H14         6.8489    3.9282   -1.5830 H         1 M1C         0.2131
     29 H15         4.4937    5.0684   -0.6409 H         1 M1C         0.2131
     30 H16         2.9810    4.8860   -3.9774 H         1 M1C         0.0322
     31 H17         2.3867    5.1532   -2.3034 H         1 M1C         0.0322
     32 H18         0.9678    3.1733   -2.4519 H         1 M1C         0.0267
     33 H19         1.6206    2.7941   -4.0818 H         1 M1C         0.0267
     34 H20         0.7472    5.0686   -4.8390 H         1 M1C         0.0263
     35 H21        -0.0954    5.1845   -3.2568 H         1 M1C         0.0263
     36 H22        -1.6028    4.3487   -5.0179 H         1 M1C         0.0230
     37 H23        -1.3213    3.1008   -3.7570 H         1 M1C         0.0230
     38 H24        -0.4788    2.9849   -5.3392 H         1 M1C         0.0230
@<TRIPOS>BOND
     1    2    1 1  
     2    3    1 1  
     3    3    2 1  
     4    8    3 1  
     5    5    4 1  
     6    6    5 1  
     7    5   11 1  
     8    7    6 1  
     9    6    9 1  
    10    6   10 1  
    11    7    8 1  
    12   11   12 1  
    13   12   13 1  
    14   13   14 1  
    15    1   15 1  
    16    1   16 1  
    17    2   17 1  
    18    2   18 1  
    19    3   19 1  
    20    4   20 1  
    21    4   21 1  
    22    4   22 1  
    23    5   23 1  
    24    7   24 1  
    25    7   25 1  
    26    8   26 1  
    27    8   27 1  
    28    9   28 1  
    29   10   29 1  
    30   11   30 1  
    31   11   31 1  
    32   12   32 1  
    33   12   33 1  
    34   13   34 1  
    35   13   35 1  
    36   14   36 1  
    37   14   37 1  
    38   14   38 1  
@<TRIPOS>SUBSTRUCTURE
     1 M1C         1

