### 
### Created by X-TOOL on Mon Sep 10 21:12:51 2018
### 

@<TRIPOS>MOLECULE
1qxy_ligand
   32    32     1     0     0
SMALL
GAST_HUCK


@<TRIPOS>ATOM
      1 OA          6.2870    3.1910   -1.6160 O.3       1 M2C        -0.3922
      2 C7          5.4300    3.8770   -2.4800 C.3       1 M2C         0.2199
      3 O8          5.4750    5.2400   -2.0250 O.3       1 M2C        -0.3922
      4 C9          4.0230    3.2670   -2.3810 C.3       1 M2C         0.0142
      5 C11         2.9090    4.1360   -2.9560 C.3       1 M2C        -0.0028
      6 C12         1.4980    3.5620   -2.7630 C.3       1 M2C        -0.0021
      7 S13         0.2040    4.5530   -3.5070 S.3       1 M2C        -0.1640
      8 C14        -0.7150    5.1960   -2.1620 C.3       1 M2C        -0.0181
      9 N10         3.7660    2.7620   -1.0590 N.4       1 M2C         0.2192
     10 C1          5.9930    3.7210   -3.8500 C.ar      1 M2C         0.0852
     11 C2          6.1290    2.4990   -4.4350 C.ar      1 M2C        -0.0076
     12 C3          6.6540    2.4000   -5.7010 C.ar      1 M2C        -0.0135
     13 C4          7.1350    3.5200   -6.2970 C.ar      1 M2C        -0.0062
     14 C5          7.0160    4.7260   -5.6480 C.ar      1 M2C         0.0418
     15 N6          6.4530    4.8160   -4.4340 N.ar      1 M2C        -0.2664
     16 H1          7.1609    3.5580   -1.6812 H         1 M2C         0.2003
     17 H2          5.1778    5.2818   -1.1237 H         1 M2C         0.2003
     18 H3          4.0459    2.3797   -3.0307 H         1 M2C         0.0812
     19 H4          3.0876    4.2563   -4.0347 H         1 M2C         0.0322
     20 H5          2.9510    5.1196   -2.4654 H         1 M2C         0.0322
     21 H6          1.2993    3.4865   -1.6837 H         1 M2C         0.0378
     22 H7          1.4677    2.5585   -3.2126 H         1 M2C         0.0378
     23 H8         -1.5353    5.8213   -2.5441 H         1 M2C         0.0340
     24 H9         -0.0561    5.8045   -1.5252 H         1 M2C         0.0340
     25 H10        -1.1309    4.3660   -1.5719 H         1 M2C         0.0340
     26 H11         4.5469    2.2013   -0.7558 H         1 M2C         0.1992
     27 H12         2.9314    2.1969   -1.0715 H         1 M2C         0.1992
     28 H13         3.6397    3.5338   -0.4231 H         1 M2C         0.1992
     29 H14         5.8235    1.6054   -3.9027 H         1 M2C         0.0954
     30 H15         6.6833    1.4454   -6.2137 H         1 M2C         0.0811
     31 H16         7.6066    3.4646   -7.2715 H         1 M2C         0.0937
     32 H17         7.3856    5.6247   -6.1284 H         1 M2C         0.0932
@<TRIPOS>BOND
     1    1    2 1  
     2    2    3 1  
     3    2    4 1  
     4    2   10 1  
     5    4    5 1  
     6    4    9 1  
     7    5    6 1  
     8    6    7 1  
     9    7    8 1  
    10   10   11 ar 
    11   10   15 ar 
    12   11   12 ar 
    13   12   13 ar 
    14   13   14 ar 
    15   14   15 ar 
    16    1   16 1  
    17    3   17 1  
    18    4   18 1  
    19    5   19 1  
    20    5   20 1  
    21    6   21 1  
    22    6   22 1  
    23    8   23 1  
    24    8   24 1  
    25    8   25 1  
    26    9   26 1  
    27    9   27 1  
    28    9   28 1  
    29   11   29 1  
    30   12   30 1  
    31   13   31 1  
    32   14   32 1  
@<TRIPOS>SUBSTRUCTURE
     1 M2C         1

