### 
### Created by X-TOOL on Mon Sep 10 21:12:51 2018
### 

@<TRIPOS>MOLECULE
1qxz_ligand
   29    29     1     0     0
SMALL
GAST_HUCK


@<TRIPOS>ATOM
      1 N1         16.6960    2.9840    1.1790 N.4       1 M3C         0.2166
      2 C2         16.3050    3.2690    2.5540 C.3       1 M3C         0.0051
      3 C10        17.4030    4.1880    3.0830 C.3       1 M3C        -0.0061
      4 C11        18.7680    3.5010    3.1040 C.3       1 M3C        -0.0024
      5 S12        20.1420    4.5880    3.6080 S.3       1 M3C        -0.1640
      6 C13        20.0090    4.1010    5.2380 C.3       1 M3C        -0.0181
      7 C3         14.8820    3.8460    2.5570 C.3       1 M3C         0.2188
      8 O4         14.0720    3.0510    1.6930 O.3       1 M3C        -0.4078
      9 O15        14.8810    5.1820    2.0730 O.3       1 M3C        -0.4078
     10 C5         14.2670    3.7530    3.9390 C.2       1 M3C         0.1449
     11 N6         13.6810    4.8220    4.4880 N.2       1 M3C        -0.2482
     12 C7         13.1830    4.4970    5.7200 C.2       1 M3C         0.0593
     13 C8         13.4010    3.1630    6.0040 C.2       1 M3C         0.0670
     14 S9         14.2010    2.2930    4.7930 S.3       1 M3C         0.0307
     15 H1         17.6297    2.6045    1.1670 H         1 M3C         0.1988
     16 H2         16.6724    3.8352    0.6396 H         1 M3C         0.1988
     17 H3         16.0564    2.3152    0.7795 H         1 M3C         0.1988
     18 H4         16.2984    2.3440    3.1492 H         1 M3C         0.0769
     19 H5         17.1451    4.4956    4.1071 H         1 M3C         0.0318
     20 H6         17.4632    5.0766    2.4374 H         1 M3C         0.0318
     21 H7         18.9799    3.1230    2.0930 H         1 M3C         0.0378
     22 H8         18.7191    2.6573    3.8081 H         1 M3C         0.0378
     23 H9         20.7654    4.6255    5.8403 H         1 M3C         0.0340
     24 H10        20.1708    3.0154    5.3107 H         1 M3C         0.0340
     25 H11        19.0052    4.3482    5.6138 H         1 M3C         0.0340
     26 H12        13.1859    3.3937    1.6873 H         1 M3C         0.1943
     27 H13        15.2338    5.1984    1.1911 H         1 M3C         0.1943
     28 H14        12.6818    5.1964    6.3875 H         1 M3C         0.0846
     29 H15        13.0815    2.7047    6.9388 H         1 M3C         0.1240
@<TRIPOS>BOND
     1    1    2 1  
     2    2    3 1  
     3    2    7 1  
     4    3    4 1  
     5    4    5 1  
     6    5    6 1  
     7    7    8 1  
     8    7    9 1  
     9    7   10 1  
    10   10   11 2  
    11   10   14 1  
    12   11   12 1  
    13   12   13 2  
    14   13   14 1  
    15    1   15 1  
    16    1   16 1  
    17    1   17 1  
    18    2   18 1  
    19    3   19 1  
    20    3   20 1  
    21    4   21 1  
    22    4   22 1  
    23    6   23 1  
    24    6   24 1  
    25    6   25 1  
    26    8   26 1  
    27    9   27 1  
    28   12   28 1  
    29   13   29 1  
@<TRIPOS>SUBSTRUCTURE
     1 M3C         1

