### 
### Created by X-TOOL on Mon Sep 10 21:12:51 2018
### 

@<TRIPOS>MOLECULE
1qy1_ligand
   26    26     1     0     0
SMALL
GAST_HUCK


@<TRIPOS>ATOM
      1 N1         50.2630   22.9610   42.7300 N.ar      1 PRZ        -0.2838
      2 C2         50.2500   23.7750   41.6530 C.ar      1 PRZ         0.0890
      3 C3         51.2160   23.5720   40.6630 C.ar      1 PRZ         0.1984
      4 N4         52.1170   22.5790   40.8060 N.ar      1 PRZ        -0.2574
      5 C5         52.1180   21.7900   41.8710 C.ar      1 PRZ         0.0210
      6 C6         51.1600   21.9900   42.8650 C.ar      1 PRZ         0.0196
      7 C21        49.1490   24.8530   41.5610 C.3       1 PRZ         0.0043
      8 C22        48.2800   24.6440   40.3120 C.3       1 PRZ        -0.0350
      9 C23        47.2020   25.7290   40.2570 C.3       1 PRZ        -0.0607
     10 C24        47.6420   23.2490   40.3070 C.3       1 PRZ        -0.0607
     11 O31        51.2340   24.4430   39.6190 O.3       1 PRZ        -0.2980
     12 C31        52.4030   24.3330   38.8150 C.3       1 PRZ         0.0635
     13 H1         52.8536   20.9997   41.9683 H         1 PRZ         0.0821
     14 H2         51.1473   21.3558   43.7441 H         1 PRZ         0.0795
     15 H3         49.6203   25.8456   41.5098 H         1 PRZ         0.0454
     16 H4         48.5125   24.7950   42.4563 H         1 PRZ         0.0454
     17 H5         48.9187   24.7357   39.4211 H         1 PRZ         0.0320
     18 H6         46.5783   25.5812   39.3630 H         1 PRZ         0.0234
     19 H7         47.6799   26.7187   40.2111 H         1 PRZ         0.0234
     20 H8         46.5730   25.6669   41.1572 H         1 PRZ         0.0234
     21 H9         48.4319   22.4845   40.3469 H         1 PRZ         0.0234
     22 H10        47.0519   23.1189   39.3878 H         1 PRZ         0.0234
     23 H11        46.9848   23.1432   41.1827 H         1 PRZ         0.0234
     24 H12        52.3527   25.0623   37.9931 H         1 PRZ         0.0584
     25 H13        52.4681   23.3165   38.3997 H         1 PRZ         0.0584
     26 H14        53.2918   24.5352   39.4307 H         1 PRZ         0.0584
@<TRIPOS>BOND
     1    1    2 ar 
     2    1    6 ar 
     3    2    3 ar 
     4    2    7 1  
     5    3    4 ar 
     6    3   11 1  
     7    4    5 ar 
     8    5    6 ar 
     9    7    8 1  
    10    8    9 1  
    11    8   10 1  
    12   11   12 1  
    13    5   13 1  
    14    6   14 1  
    15    7   15 1  
    16    7   16 1  
    17    8   17 1  
    18    9   18 1  
    19    9   19 1  
    20    9   20 1  
    21   10   21 1  
    22   10   22 1  
    23   10   23 1  
    24   12   24 1  
    25   12   25 1  
    26   12   26 1  
@<TRIPOS>SUBSTRUCTURE
     1 PRZ         1

