### 
### Created by X-TOOL on Mon Sep 10 21:12:49 2018
### 

@<TRIPOS>MOLECULE
1qyg_ligand
   40    42     1     0     0
SMALL
GAST_HUCK


@<TRIPOS>ATOM
      1 C1         22.4460   -1.2630   26.2590 C.3       1 BCG        -0.0035
      2 C2         23.8230   -1.8700   25.8480 C.3       1 BCG         0.0851
      3 C3         23.7170   -2.3060   24.3540 C.3       1 BCG         0.1109
      4 C4         22.5100   -3.0750   23.9880 C.3       1 BCG         0.0230
      5 C5         21.2020   -2.3290   24.5660 C.3       1 BCG        -0.0177
      6 C6         21.1570   -0.8370   24.1760 C.3       1 BCG        -0.0044
      7 C7         22.0120   -0.0810   25.3480 C.3       1 BCG        -0.0026
      8 C8         26.1290   -2.5320   24.0090 C.2       1 BCG         0.2636
      9 C9         27.1500   -3.5320   23.5930 C.ar      1 BCG         0.0620
     10 C10        26.7740   -4.8540   23.1910 C.ar      1 BCG        -0.0406
     11 C11        27.8290   -5.7630   22.7520 C.ar      1 BCG        -0.0559
     12 C12        29.1740   -5.3220   22.7360 C.ar      1 BCG        -0.0573
     13 C13        29.5230   -3.9990   23.1720 C.ar      1 BCG        -0.0559
     14 C14        28.4870   -3.1350   23.5890 C.ar      1 BCG        -0.0406
     15 C15        24.2950   -3.0020   26.7720 C.2       1 BCG         0.0461
     16 C16        20.1090   -2.0540   26.8750 C.3       1 BCG        -0.0425
     17 N1         21.3640   -2.3560   26.0570 N.4       1 BCG         0.2389
     18 O1         24.9230   -3.0250   23.9640 O.3       1 BCG        -0.2717
     19 O2         26.4190   -1.3840   24.2890 O.2       1 BCG        -0.3568
     20 O3         25.3480   -3.0990   27.3210 O.co2     1 BCG        -0.5684
     21 O4         23.3700   -3.9040   26.8580 O.co2     1 BCG        -0.5684
     22 H1         22.4863   -0.9355   27.3083 H         1 BCG         0.0874
     23 H2         24.5764   -1.0713   25.9150 H         1 BCG         0.0551
     24 H3         23.6808   -1.3791   23.7628 H         1 BCG         0.0673
     25 H4         22.5751   -4.0859   24.4168 H         1 BCG         0.0350
     26 H5         22.4380   -3.1453   22.8926 H         1 BCG         0.0350
     27 H6         20.2852   -2.8420   24.2401 H         1 BCG         0.0852
     28 H7         20.1196   -0.4718   24.1547 H         1 BCG         0.0322
     29 H8         21.6219   -0.6782   23.1918 H         1 BCG         0.0322
     30 H9         22.8854    0.4407   24.9298 H         1 BCG         0.0323
     31 H10        21.3852    0.6362   25.8981 H         1 BCG         0.0323
     32 H11        25.7374   -5.1704   23.2120 H         1 BCG         0.0672
     33 H12        27.5832   -6.7715   22.4396 H         1 BCG         0.0630
     34 H13        29.9519   -5.9928   22.3896 H         1 BCG         0.0654
     35 H14        30.5564   -3.6717   23.1808 H         1 BCG         0.0630
     36 H15        28.7385   -2.1326   23.9160 H         1 BCG         0.0672
     37 H16        20.3497   -2.1027   27.9472 H         1 BCG         0.0778
     38 H17        19.3309   -2.7951   26.6399 H         1 BCG         0.0778
     39 H18        19.7431   -1.0468   26.6268 H         1 BCG         0.0778
     40 H19        21.7096   -3.2579   26.3454 H         1 BCG         0.2037
@<TRIPOS>BOND
     1    2    1 1  
     2    1    7 1  
     3    1   17 1  
     4    3    2 1  
     5    2   15 1  
     6    3    4 1  
     7   18    3 1  
     8    4    5 1  
     9    5    6 1  
    10    5   17 1  
    11    6    7 1  
    12    8    9 1  
    13   18    8 1  
    14    8   19 2  
    15    9   10 ar 
    16    9   14 ar 
    17   10   11 ar 
    18   11   12 ar 
    19   12   13 ar 
    20   13   14 ar 
    21   15   20 ar 
    22   15   21 ar 
    23   17   16 1  
    24    1   22 1  
    25    2   23 1  
    26    3   24 1  
    27    4   25 1  
    28    4   26 1  
    29    5   27 1  
    30    6   28 1  
    31    6   29 1  
    32    7   30 1  
    33    7   31 1  
    34   10   32 1  
    35   11   33 1  
    36   12   34 1  
    37   13   35 1  
    38   14   36 1  
    39   16   37 1  
    40   16   38 1  
    41   16   39 1  
    42   17   40 1  
@<TRIPOS>SUBSTRUCTURE
     1 BCG         1

