### 
### Created by X-TOOL on Mon Sep 10 21:12:49 2018
### 

@<TRIPOS>MOLECULE
1r0p_ligand
   56    63     1     0     0
SMALL
GAST_HUCK


@<TRIPOS>ATOM
      1 O3         11.4830   11.0410  136.5340 O.2       1 KSA        -0.3092
      2 C22        12.2770   10.5770  137.3590 C.2       1 KSA         0.2933
      3 O5         11.9180    9.2780  137.8980 O.3       1 KSA        -0.2786
      4 C26        10.6860    8.6060  137.6060 C.3       1 KSA         0.0650
      5 C1         13.6050   11.2330  137.7850 C.3       1 KSA         0.2165
      6 O4         13.5280   12.6180  137.5130 O.3       1 KSA        -0.3790
      7 C2         14.5590   10.5400  136.9320 C.3       1 KSA         0.2075
      8 O1         15.0190    9.3260  137.5600 O.3       1 KSA        -0.3158
      9 C25        14.1800   10.0260  135.5320 C.3       1 KSA        -0.0069
     10 N1         15.8860   11.2470  136.8080 N.pl3     1 KSA        -0.2301
     11 C3         16.9230   10.9960  137.6190 C.ar      1 KSA         0.0977
     12 C4         17.1280   10.1870  138.8360 C.ar      1 KSA         0.0952
     13 N2         16.1460    9.4550  139.4700 N.pl3     1 KSA        -0.2379
     14 C24        14.7800    9.3610  138.9420 C.3       1 KSA         0.1634
     15 C27        13.9250   10.6420  139.1580 C.3       1 KSA         0.0422
     16 C17        16.7760    8.8440  140.5560 C.ar      1 KSA         0.0681
     17 C18        16.2430    7.9780  141.5060 C.ar      1 KSA        -0.0404
     18 C19        17.0850    7.5240  142.5250 C.ar      1 KSA        -0.0732
     19 C20        18.4310    7.9270  142.5650 C.ar      1 KSA        -0.0750
     20 C21        18.9590    8.7840  141.5960 C.ar      1 KSA        -0.0685
     21 C16        18.1040    9.2380  140.5920 C.ar      1 KSA        -0.0072
     22 C5         18.3310   10.0620  139.4950 C.ar      1 KSA        -0.0018
     23 C6         19.4670   10.8350  138.9530 C.ar      1 KSA         0.0320
     24 C15        20.8680   10.9600  139.3900 C.2       1 KSA         0.1871
     25 O2         21.3820   10.3180  140.3070 O.2       1 KSA        -0.3964
     26 C7         19.3080   11.6350  137.8360 C.ar      1 KSA        -0.0168
     27 C23        20.5930   12.3300  137.4840 C.3       1 KSA         0.0603
     28 N3         21.4430   11.7970  138.5460 N.am      1 KSA        -0.2790
     29 C8         18.0000   11.7230  137.1610 C.ar      1 KSA         0.0011
     30 C9         17.5810   12.4000  136.0310 C.ar      1 KSA        -0.0075
     31 C10        16.2450   12.1060  135.8350 C.ar      1 KSA         0.0693
     32 C11        15.5870   12.7330  134.7230 C.ar      1 KSA        -0.0408
     33 C14        18.3200   13.3000  135.1860 C.ar      1 KSA        -0.0696
     34 C13        17.6490   13.8610  134.1010 C.ar      1 KSA        -0.0759
     35 C12        16.2930   13.5830  133.8930 C.ar      1 KSA        -0.0739
     36 H1         10.6592    7.6427  138.1363 H         1 KSA         0.0576
     37 H2         10.6120    8.4303  136.5227 H         1 KSA         0.0576
     38 H3          9.8414    9.2293  137.9350 H         1 KSA         0.0576
     39 H4         14.3411   13.0359  137.7710 H         1 KSA         0.2080
     40 H5         15.0519    9.5378  135.0722 H         1 KSA         0.0283
     41 H6         13.8603   10.8714  134.9051 H         1 KSA         0.0283
     42 H7         13.3570    9.3013  135.6178 H         1 KSA         0.0283
     43 H8         14.2588    8.4702  139.3227 H         1 KSA         0.0930
     44 H9         12.9918   10.3843  139.6803 H         1 KSA         0.0332
     45 H10        14.4905   11.3718  139.7560 H         1 KSA         0.0332
     46 H11        15.2063    7.6651  141.4572 H         1 KSA         0.0539
     47 H12        16.6983    6.8581  143.2879 H         1 KSA         0.0568
     48 H13        19.0710    7.5664  143.3621 H         1 KSA         0.0516
     49 H14        19.9996    9.0863  141.6237 H         1 KSA         0.0576
     50 H15        20.4988   13.4244  137.5421 H         1 KSA         0.0679
     51 H16        20.9549   12.0456  136.4850 H         1 KSA         0.0679
     52 H17        22.4064   12.0518  138.6291 H         1 KSA         0.1863
     53 H18        14.5371   12.5396  134.5348 H         1 KSA         0.0538
     54 H19        19.3596   13.5330  135.3858 H         1 KSA         0.0566
     55 H20        18.1784   14.5141  133.4166 H         1 KSA         0.0516
     56 H21        15.7822   14.0475  133.0573 H         1 KSA         0.0561
@<TRIPOS>BOND
     1    1    2 2  
     2    2    3 1  
     3    2    5 1  
     4    3    4 1  
     5    5    6 1  
     6    5    7 1  
     7    5   15 1  
     8    7    8 1  
     9    7    9 1  
    10    7   10 1  
    11    8   14 1  
    12   10   11 1  
    13   10   31 1  
    14   11   12 ar 
    15   11   29 ar 
    16   12   13 1  
    17   12   22 ar 
    18   13   14 1  
    19   13   16 1  
    20   14   15 1  
    21   16   17 ar 
    22   16   21 ar 
    23   17   18 ar 
    24   18   19 ar 
    25   19   20 ar 
    26   20   21 ar 
    27   21   22 1  
    28   22   23 ar 
    29   23   24 1  
    30   23   26 ar 
    31   24   25 2  
    32   24   28 am 
    33   26   27 1  
    34   26   29 ar 
    35   27   28 1  
    36   29   30 1  
    37   30   31 ar 
    38   30   33 ar 
    39   31   32 ar 
    40   32   35 ar 
    41   33   34 ar 
    42   34   35 ar 
    43    4   36 1  
    44    4   37 1  
    45    4   38 1  
    46    6   39 1  
    47    9   40 1  
    48    9   41 1  
    49    9   42 1  
    50   14   43 1  
    51   15   44 1  
    52   15   45 1  
    53   17   46 1  
    54   18   47 1  
    55   19   48 1  
    56   20   49 1  
    57   27   50 1  
    58   27   51 1  
    59   28   52 1  
    60   32   53 1  
    61   33   54 1  
    62   34   55 1  
    63   35   56 1  
@<TRIPOS>SUBSTRUCTURE
     1 KSA         1

