### 
### Created by X-TOOL on Mon Sep 10 21:12:52 2018
### 

@<TRIPOS>MOLECULE
1r1i_ligand
   53    53     1     0     0
SMALL
GAST_HUCK


@<TRIPOS>ATOM
      1 SG         24.6370   50.5380   28.8190 S.3       1 TI1        -0.1531
      2 CA1        25.2310   51.3070   30.3380 C.3       1 TI1         0.0914
      3 CB1        26.7050   50.9320   30.5450 C.3       1 TI1        -0.0242
      4 CG1        27.5970   52.1730   30.6430 C.3       1 TI1        -0.0500
      5 CD1        27.2820   52.9790   31.9070 C.3       1 TI1        -0.0531
      6 CE1        28.2230   54.1810   32.0450 C.3       1 TI1        -0.0559
      7 CF1        27.9920   55.1980   30.9210 C.3       1 TI1        -0.0653
      8 C1         24.3950   50.7590   31.4460 C.2       1 TI1         0.1911
      9 O1         23.2000   50.9830   31.5400 O.2       1 TI1        -0.3957
     10 N2         25.0040   49.9480   32.2840 N.am      1 TI1        -0.2629
     11 CA2        24.1530   49.4150   33.3220 C.3       1 TI1         0.1404
     12 CB2        24.7250   48.1020   33.8160 C.3       1 TI1         0.0214
     13 CG2        23.6370   47.5030   34.6660 C.ar      1 TI1        -0.0386
     14 CD3        23.7520   47.4760   36.0440 C.ar      1 TI1        -0.0601
     15 CD4        22.4960   47.0260   34.0670 C.ar      1 TI1        -0.0601
     16 CE3        22.7350   46.9340   36.8160 C.ar      1 TI1        -0.0686
     17 CE4        21.4770   46.5000   34.8290 C.ar      1 TI1        -0.0686
     18 CZ2        21.5900   46.4370   36.1980 C.ar      1 TI1        -0.0687
     19 C2         24.0060   50.3990   34.4340 C.2       1 TI1         0.2054
     20 O2         22.9050   50.6510   34.8230 O.2       1 TI1        -0.3942
     21 N3         25.0830   50.9940   34.9350 N.am      1 TI1        -0.2696
     22 CA3        24.9070   51.9530   36.0020 C.3       1 TI1         0.0916
     23 CB3        25.2390   51.3080   37.3420 C.3       1 TI1        -0.0300
     24 C3         25.8060   53.0910   35.7870 C.2       1 TI1         0.0598
     25 O3         26.7660   52.8840   35.1070 O.co2     1 TI1        -0.5666
     26 OXT        25.5940   54.2910   36.3130 O.co2     1 TI1        -0.5666
     27 H1         23.6690   50.7806   28.6773 H         1 TI1         0.1046
     28 H2         25.1273   52.4008   30.2852 H         1 TI1         0.0649
     29 H3         27.0396   50.3188   29.6953 H         1 TI1         0.0300
     30 H4         26.7980   50.3519   31.4749 H         1 TI1         0.0300
     31 H5         27.4280   52.8077   29.7606 H         1 TI1         0.0267
     32 H6         28.6503   51.8572   30.6713 H         1 TI1         0.0267
     33 H7         27.3992   52.3285   32.7862 H         1 TI1         0.0265
     34 H8         26.2442   53.3398   31.8535 H         1 TI1         0.0265
     35 H9         29.2641   53.8285   32.0015 H         1 TI1         0.0263
     36 H10        28.0414   54.6695   33.0137 H         1 TI1         0.0263
     37 H11        28.6803   56.0467   31.0473 H         1 TI1         0.0230
     38 H12        26.9537   55.5590   30.9608 H         1 TI1         0.0230
     39 H13        28.1764   54.7180   29.9486 H         1 TI1         0.0230
     40 H14        25.9747   49.7198   32.2086 H         1 TI1         0.1885
     41 H15        23.1566   49.2236   32.8971 H         1 TI1         0.0823
     42 H16        25.6322   48.2751   34.4135 H         1 TI1         0.0474
     43 H17        24.9638   47.4408   32.9700 H         1 TI1         0.0474
     44 H18        24.6380   47.8789   36.5213 H         1 TI1         0.0557
     45 H19        22.3976   47.0641   32.9881 H         1 TI1         0.0557
     46 H20        22.8309   46.8974   37.8951 H         1 TI1         0.0599
     47 H21        20.5787   46.1327   34.3460 H         1 TI1         0.0599
     48 H22        20.7936   46.0036   36.7920 H         1 TI1         0.0559
     49 H23        25.9946   50.7832   34.5820 H         1 TI1         0.1875
     50 H24        23.8641   52.3026   36.0110 H         1 TI1         0.0723
     51 H25        25.1023   52.0447   38.1474 H         1 TI1         0.0270
     52 H26        26.2834   50.9630   37.3341 H         1 TI1         0.0270
     53 H27        24.5709   50.4508   37.5119 H         1 TI1         0.0270
@<TRIPOS>BOND
     1    1    2 1  
     2    2    3 1  
     3    2    8 1  
     4    3    4 1  
     5    4    5 1  
     6    5    6 1  
     7    6    7 1  
     8    8    9 2  
     9    8   10 am 
    10   10   11 1  
    11   11   12 1  
    12   11   19 1  
    13   12   13 1  
    14   13   14 ar 
    15   13   15 ar 
    16   14   16 ar 
    17   15   17 ar 
    18   16   18 ar 
    19   17   18 ar 
    20   19   20 2  
    21   19   21 am 
    22   21   22 1  
    23   22   23 1  
    24   22   24 1  
    25   24   25 ar 
    26   24   26 ar 
    27    1   27 1  
    28    2   28 1  
    29    3   29 1  
    30    3   30 1  
    31    4   31 1  
    32    4   32 1  
    33    5   33 1  
    34    5   34 1  
    35    6   35 1  
    36    6   36 1  
    37    7   37 1  
    38    7   38 1  
    39    7   39 1  
    40   10   40 1  
    41   11   41 1  
    42   12   42 1  
    43   12   43 1  
    44   14   44 1  
    45   15   45 1  
    46   16   46 1  
    47   17   47 1  
    48   18   48 1  
    49   21   49 1  
    50   22   50 1  
    51   23   51 1  
    52   23   52 1  
    53   23   53 1  
@<TRIPOS>SUBSTRUCTURE
     1 TI1         1

