### 
### Created by X-TOOL on Fri Sep 26 17:34:26 2014
### 

@<TRIPOS>MOLECULE
1r4w_ligand
   36    35     1     0     0
SMALL
GAST_HUCK


@<TRIPOS>ATOM
      1 N1        -40.0480   -3.6560   -1.9500 N.4       1 GSH         0.2328
      2 CA1       -40.0160   -4.7010   -2.9740 C.3       1 GSH         0.0304
      3 C1        -38.7550   -4.5760   -3.8090 C.2       1 GSH         0.0846
      4 O11       -38.4520   -5.4920   -4.6160 O.co2     1 GSH        -0.5643
      5 O12       -38.0200   -3.4810   -3.5740 O.co2     1 GSH        -0.5643
      6 CB1       -41.3410   -4.5470   -3.7450 C.3       1 GSH         0.0193
      7 CG1       -41.7230   -5.8250   -4.5120 C.3       1 GSH         0.0441
      8 CD1       -43.1800   -5.6340   -5.1350 C.2       1 GSH         0.1785
      9 OE1       -43.8490   -4.5750   -4.9600 O.2       1 GSH        -0.3969
     10 N2        -43.6530   -6.7130   -5.8090 N.am      1 GSH        -0.2648
     11 CA2       -45.0180   -6.6960   -6.3780 C.3       1 GSH         0.1395
     12 C2        -45.7670   -7.5330   -5.3230 C.2       1 GSH         0.2039
     13 O2        -45.7940   -8.7630   -5.4040 O.2       1 GSH        -0.3944
     14 CB2       -45.1390   -7.4270   -7.7760 C.3       1 GSH         0.0311
     15 SG2       -44.0000   -6.7210   -9.0730 S.3       1 GSH        -0.1735
     16 N3        -46.3410   -6.8330   -4.2900 N.am      1 GSH        -0.2722
     17 CA3       -47.0900   -7.4350   -3.1170 C.3       1 GSH         0.0833
     18 C3        -47.1360   -6.4420   -1.9040 C.2       1 GSH         0.0570
     19 O31       -47.7280   -6.8430   -0.8740 O.co2     1 GSH        -0.5669
     20 O32       -46.5760   -5.2740   -1.9950 O.co2     1 GSH        -0.5669
     21 H1        -40.8889   -3.7484   -1.4018 H         1 GSH         0.2010
     22 H2        -40.0336   -2.7508   -2.3931 H         1 GSH         0.2010
     23 H3        -39.2437   -3.7491   -1.3496 H         1 GSH         0.2010
     24 H4        -40.0017   -5.6908   -2.4943 H         1 GSH         0.1026
     25 H5        -41.2379   -3.7207   -4.4638 H         1 GSH         0.0363
     26 H6        -42.1418   -4.3120   -3.0285 H         1 GSH         0.0363
     27 H7        -41.7248   -6.6829   -3.8236 H         1 GSH         0.0505
     28 H8        -40.9965   -6.0034   -5.3184 H         1 GSH         0.0505
     29 H9        -43.0765   -7.5223   -5.9212 H         1 GSH         0.1883
     30 H10       -45.4073   -5.6703   -6.4579 H         1 GSH         0.0808
     31 H11       -46.1756   -7.3324   -8.1318 H         1 GSH         0.0422
     32 H12       -44.8945   -8.4904   -7.6371 H         1 GSH         0.0422
     33 H13       -44.1227   -7.2257   -9.9369 H         1 GSH         0.1019
     34 H14       -46.2574   -5.8368   -4.3136 H         1 GSH         0.1873
     35 H15       -46.5835   -8.3601   -2.8044 H         1 GSH         0.0689
     36 H16       -48.1187   -7.6677   -3.4294 H         1 GSH         0.0689
@<TRIPOS>BOND
     1    1    2 1  
     2    2    3 1  
     3    2    6 1  
     4    3    4 ar 
     5    3    5 ar 
     6    6    7 1  
     7    7    8 1  
     8    8    9 2  
     9    8   10 am 
    10   10   11 1  
    11   11   12 1  
    12   11   14 1  
    13   12   13 2  
    14   12   16 am 
    15   14   15 1  
    16   16   17 1  
    17   17   18 1  
    18   18   19 ar 
    19   18   20 ar 
    20    1   21 1  
    21    1   22 1  
    22    1   23 1  
    23    2   24 1  
    24    6   25 1  
    25    6   26 1  
    26    7   27 1  
    27    7   28 1  
    28   10   29 1  
    29   11   30 1  
    30   14   31 1  
    31   14   32 1  
    32   15   33 1  
    33   16   34 1  
    34   17   35 1  
    35   17   36 1  
@<TRIPOS>SUBSTRUCTURE
     1 GSH         1

