### 
### Created by X-TOOL on Mon Sep 10 21:12:51 2018
### 

@<TRIPOS>MOLECULE
1r58_ligand
   46    46     1     0     0
SMALL
GAST_HUCK


@<TRIPOS>ATOM
      1 C1         19.5710   33.0360   16.1000 C.3       1 AO5        -0.0004
      2 C2         18.7930   34.0790   15.2970 C.3       1 AO5        -0.0536
      3 C3         19.9230   33.5930   17.4710 C.3       1 AO5        -0.0536
      4 S4         21.0510   32.5290   15.2710 S.3       1 AO5        -0.1577
      5 C5         20.8100   30.7630   15.0850 C.3       1 AO5        -0.0007
      6 C6         21.0560   29.9950   16.3750 C.3       1 AO5         0.0039
      7 C7         20.6120   28.5460   16.2170 C.3       1 AO5         0.0204
      8 N8         21.9220   27.9620   15.8740 N.4       1 AO5         0.2243
      9 C9         20.0220   27.9640   17.5610 C.3       1 AO5         0.1880
     10 O10        20.0380   26.5410   17.5620 O.3       1 AO5        -0.3665
     11 C11        18.5920   28.4240   17.7420 C.2       1 AO5         0.2315
     12 O12        17.6390   27.8590   17.2390 O.2       1 AO5        -0.3920
     13 N13        18.4980   29.6570   18.5610 N.am      1 AO5        -0.1806
     14 N14        17.2150   30.3150   18.8200 N.am      1 AO5        -0.1816
     15 C15        16.5600   31.0460   17.8580 C.2       1 AO5         0.2260
     16 O16        17.0760   31.1400   16.7250 O.2       1 AO5        -0.3827
     17 C17        15.2500   31.7070   18.1670 C.ar      1 AO5         0.0522
     18 C18        14.5710   31.7310   19.5060 C.ar      1 AO5        -0.0418
     19 C19        13.2610   32.4350   19.6490 C.ar      1 AO5        -0.0557
     20 C20        12.6260   33.1070   18.4770 C.ar      1 AO5        -0.0436
     21 C21        13.3160   33.0650   17.1750 C.ar      1 AO5         0.0459
     22 C22        14.5890   32.3900   17.0110 C.ar      1 AO5        -0.0279
     23 CL23       12.6480   33.8090   15.7870 Cl        1 AO5        -0.0695
     24 H1         18.9283   32.1530   16.2315 H         1 AO5         0.0407
     25 H2         17.8847   34.3635   15.8484 H         1 AO5         0.0240
     26 H3         18.5122   33.6559   14.3213 H         1 AO5         0.0240
     27 H4         19.4224   34.9680   15.1437 H         1 AO5         0.0240
     28 H5         20.4821   32.8367   18.0415 H         1 AO5         0.0240
     29 H6         18.9995   33.8504   18.0104 H         1 AO5         0.0240
     30 H7         20.5420   34.4946   17.3526 H         1 AO5         0.0240
     31 H8         21.5053   30.3924   14.3174 H         1 AO5         0.0378
     32 H9         19.7748   30.5819   14.7602 H         1 AO5         0.0378
     33 H10        20.4857   30.4629   17.1910 H         1 AO5         0.0330
     34 H11        22.1291   30.0221   16.6151 H         1 AO5         0.0330
     35 H12        19.8770   28.4199   15.4084 H         1 AO5         0.0902
     36 H13        21.8197   26.9699   15.7280 H         1 AO5         0.1999
     37 H14        22.5706   28.1255   16.6281 H         1 AO5         0.1999
     38 H15        22.2711   28.3913   15.0315 H         1 AO5         0.1999
     39 H16        20.6307   28.3301   18.4009 H         1 AO5         0.0897
     40 H17        19.6779   26.2219   18.3813 H         1 AO5         0.2135
     41 H18        19.3329   30.0497   18.9468 H         1 AO5         0.2166
     42 H19        16.8021   30.2294   19.7268 H         1 AO5         0.2159
     43 H20        15.0265   31.2427   20.3599 H         1 AO5         0.0670
     44 H21        12.7667   32.4580   20.6135 H         1 AO5         0.0629
     45 H22        11.6749   33.6165   18.5814 H         1 AO5         0.0658
     46 H23        15.0679   32.3800   16.0386 H         1 AO5         0.0676
@<TRIPOS>BOND
     1    1    2 1  
     2    1    3 1  
     3    1    4 1  
     4    4    5 1  
     5    5    6 1  
     6    6    7 1  
     7    7    8 1  
     8    7    9 1  
     9    9   10 1  
    10    9   11 1  
    11   11   12 2  
    12   11   13 am 
    13   13   14 1  
    14   14   15 am 
    15   15   16 2  
    16   15   17 1  
    17   17   18 ar 
    18   17   22 ar 
    19   18   19 ar 
    20   19   20 ar 
    21   20   21 ar 
    22   21   22 ar 
    23   21   23 1  
    24    1   24 1  
    25    2   25 1  
    26    2   26 1  
    27    2   27 1  
    28    3   28 1  
    29    3   29 1  
    30    3   30 1  
    31    5   31 1  
    32    5   32 1  
    33    6   33 1  
    34    6   34 1  
    35    7   35 1  
    36    8   36 1  
    37    8   37 1  
    38    8   38 1  
    39    9   39 1  
    40   10   40 1  
    41   13   41 1  
    42   14   42 1  
    43   18   43 1  
    44   19   44 1  
    45   20   45 1  
    46   22   46 1  
@<TRIPOS>SUBSTRUCTURE
     1 AO5         1

