### 
### Created by X-TOOL on Mon Sep 10 21:12:51 2018
### 

@<TRIPOS>MOLECULE
1r5g_ligand
   51    52     1     0     0
SMALL
GAST_HUCK


@<TRIPOS>ATOM
      1 C1         19.2480   33.7340   16.8230 C.3       1 AO1        -0.0562
      2 C2         18.9690   33.1550   15.4470 C.3       1 AO1        -0.0092
      3 S3         20.0340   31.7290   15.1370 S.3       1 AO1        -0.1608
      4 C4         18.9110   30.5100   15.4980 C.3       1 AO1        -0.0010
      5 C5         19.5070   29.8660   16.7390 C.3       1 AO1         0.0039
      6 C6         19.5750   28.3780   16.4560 C.3       1 AO1         0.0203
      7 C8         19.3960   27.5050   17.7830 C.3       1 AO1         0.1863
      8 C9         17.9770   27.5740   18.0830 C.2       1 AO1         0.2128
      9 N10        18.1360   27.9950   19.3360 N.am      1 AO1        -0.2697
     10 C11        16.8550   28.0660   19.9400 C.3       1 AO1         0.0750
     11 C12        16.0610   29.4040   19.5460 C.ar      1 AO1        -0.0076
     12 O13        17.7060   27.4890   16.9060 O.2       1 AO1        -0.3938
     13 C14        16.9370   27.9400   21.4610 C.3       1 AO1        -0.0312
     14 C15        16.7730   30.7700   19.4660 C.ar      1 AO1        -0.0586
     15 C16        16.0380   32.0180   19.1280 C.ar      1 AO1        -0.0706
     16 C17        14.5970   32.0100   18.8640 C.ar      1 AO1        -0.0631
     17 C18        13.8530   30.7560   18.9130 C.ar      1 AO1        -0.0242
     18 C19        14.5610   29.3950   19.2600 C.ar      1 AO1        -0.0100
     19 C20        12.4150   30.7800   18.6340 C.ar      1 AO1        -0.0569
     20 C21        11.6110   29.5330   18.6740 C.ar      1 AO1        -0.0629
     21 C22        12.2550   28.2310   18.9990 C.ar      1 AO1        -0.0625
     22 C23        13.7050   28.1490   19.2890 C.ar      1 AO1        -0.0547
     23 O24        19.7450   26.1250   17.5420 O.3       1 AO1        -0.3665
     24 N7         20.7050   27.9380   15.6500 N.4       1 AO1         0.2243
     25 H1         18.5924   34.6002   16.9961 H         1 AO1         0.0238
     26 H2         20.2993   34.0526   16.8805 H         1 AO1         0.0238
     27 H3         19.0543   32.9687   17.5890 H         1 AO1         0.0238
     28 H4         19.1615   33.9239   14.6842 H         1 AO1         0.0374
     29 H5         17.9165   32.8400   15.3927 H         1 AO1         0.0374
     30 H6         18.8325   29.7858   14.6738 H         1 AO1         0.0378
     31 H7         17.9184   30.9345   15.7089 H         1 AO1         0.0378
     32 H8         18.8670   30.0585   17.6127 H         1 AO1         0.0330
     33 H9         20.5149   30.2641   16.9279 H         1 AO1         0.0330
     34 H10        18.6888   28.1654   15.8401 H         1 AO1         0.0902
     35 H11        20.0015   27.9121   18.6062 H         1 AO1         0.0896
     36 H12        19.0059   28.2214   19.7742 H         1 AO1         0.1884
     37 H13        16.2718   27.2121   19.5650 H         1 AO1         0.0729
     38 H14        15.9254   27.9999   21.8889 H         1 AO1         0.0276
     39 H15        17.5544   28.7564   21.8638 H         1 AO1         0.0276
     40 H16        17.3901   26.9730   21.7250 H         1 AO1         0.0276
     41 H17        17.8380   30.8218   19.6614 H         1 AO1         0.0530
     42 H18        16.5809   32.9548   19.0758 H         1 AO1         0.0595
     43 H19        14.0834   32.9361   18.6322 H         1 AO1         0.0542
     44 H20        11.9319   31.7206   18.3953 H         1 AO1         0.0609
     45 H21        10.5480   29.5707   18.4652 H         1 AO1         0.0616
     46 H22        11.6537   27.3294   19.0238 H         1 AO1         0.0601
     47 H23        14.1548   27.1910   19.5232 H         1 AO1         0.0628
     48 H24        19.5509   25.6105   18.3166 H         1 AO1         0.2135
     49 H25        20.7766   28.5164   14.8276 H         1 AO1         0.1999
     50 H26        20.5678   26.9781   15.3747 H         1 AO1         0.1999
     51 H27        21.5529   28.0149   16.1897 H         1 AO1         0.1999
@<TRIPOS>BOND
     1    1    2 1  
     2    2    3 1  
     3    3    4 1  
     4    4    5 1  
     5    5    6 1  
     6    6    7 1  
     7    6   24 1  
     8    7    8 1  
     9    7   23 1  
    10    8    9 am 
    11    8   12 2  
    12    9   10 1  
    13   10   11 1  
    14   10   13 1  
    15   11   14 ar 
    16   11   18 ar 
    17   14   15 ar 
    18   15   16 ar 
    19   16   17 ar 
    20   17   18 ar 
    21   17   19 ar 
    22   18   22 ar 
    23   19   20 ar 
    24   20   21 ar 
    25   21   22 ar 
    26    1   25 1  
    27    1   26 1  
    28    1   27 1  
    29    2   28 1  
    30    2   29 1  
    31    4   30 1  
    32    4   31 1  
    33    5   32 1  
    34    5   33 1  
    35    6   34 1  
    36    7   35 1  
    37    9   36 1  
    38   10   37 1  
    39   13   38 1  
    40   13   39 1  
    41   13   40 1  
    42   14   41 1  
    43   15   42 1  
    44   16   43 1  
    45   19   44 1  
    46   20   45 1  
    47   21   46 1  
    48   22   47 1  
    49   23   48 1  
    50   24   49 1  
    51   24   50 1  
    52   24   51 1  
@<TRIPOS>SUBSTRUCTURE
     1 AO1         1

