### 
### Created by X-TOOL on Mon Sep 10 21:12:51 2018
### 

@<TRIPOS>MOLECULE
1r5h_ligand
   50    51     1     0     0
SMALL
GAST_HUCK


@<TRIPOS>ATOM
      1 C1         20.9010   32.3400   16.5720 C.3       1 AO2        -0.0500
      2 C2         20.2150   33.5960   16.0020 C.3       1 AO2        -0.0528
      3 C3         18.6840   33.4570   15.8950 C.3       1 AO2        -0.0530
      4 C4         18.2570   32.1840   15.1410 C.3       1 AO2        -0.0528
      5 C5         18.9230   30.9000   15.6740 C.3       1 AO2        -0.0500
      6 C6         20.4660   31.0170   15.8890 C.3       1 AO2        -0.0357
      7 C7         21.1260   29.7950   16.5690 C.3       1 AO2        -0.0023
      8 C8         20.4430   28.4390   16.3310 C.3       1 AO2         0.0199
      9 N9         21.4470   27.7750   15.6210 N.4       1 AO2         0.2243
     10 C10        20.0640   27.6310   17.7040 C.3       1 AO2         0.1880
     11 O11        20.0680   26.1760   17.6010 O.3       1 AO2        -0.3665
     12 C12        18.7110   28.2140   18.1190 C.2       1 AO2         0.2308
     13 O13        18.5400   29.3630   18.4610 O.2       1 AO2        -0.3921
     14 N14        17.6320   27.2680   18.0740 N.am      1 AO2        -0.1880
     15 N15        16.2470   27.5620   18.4180 N.pl3     1 AO2        -0.2259
     16 C16        15.6510   28.0170   19.5800 C.ar      1 AO2         0.0544
     17 C17        14.3770   28.7120   19.6130 C.ar      1 AO2        -0.0488
     18 C18        13.8220   29.1530   20.8440 C.ar      1 AO2        -0.0718
     19 C19        14.5210   28.9160   22.0850 C.ar      1 AO2        -0.0589
     20 C20        15.7860   28.2240   22.0560 C.ar      1 AO2        -0.0718
     21 C21        16.3450   27.7820   20.8320 C.ar      1 AO2        -0.0488
     22 C22        13.9180   29.3910   23.3840 C.3       1 AO2        -0.0372
     23 H1         20.6609   32.2711   17.6433 H         1 AO2         0.0268
     24 H2         21.9880   32.4527   16.4463 H         1 AO2         0.0268
     25 H3         20.6193   33.7895   14.9975 H         1 AO2         0.0265
     26 H4         20.4434   34.4477   16.6596 H         1 AO2         0.0265
     27 H5         18.2870   34.3328   15.3608 H         1 AO2         0.0265
     28 H6         18.2613   33.4239   16.9100 H         1 AO2         0.0265
     29 H7         18.5256   32.3009   14.0807 H         1 AO2         0.0265
     30 H8         17.1664   32.0743   15.2331 H         1 AO2         0.0265
     31 H9         18.7362   30.0904   14.9532 H         1 AO2         0.0268
     32 H10        18.4592   30.6464   16.6386 H         1 AO2         0.0268
     33 H11        20.8913   31.0522   14.8752 H         1 AO2         0.0303
     34 H12        21.1382   29.9795   17.6533 H         1 AO2         0.0325
     35 H13        22.1589   29.7209   16.1980 H         1 AO2         0.0325
     36 H14        19.5319   28.5591   15.7265 H         1 AO2         0.0902
     37 H15        21.1352   26.8451   15.3884 H         1 AO2         0.1999
     38 H16        22.2784   27.7185   16.1881 H         1 AO2         0.1999
     39 H17        21.6516   28.2824   14.7744 H         1 AO2         0.1999
     40 H18        20.8081   27.8897   18.4717 H         1 AO2         0.0897
     41 H19        19.8377   25.7995   18.4422 H         1 AO2         0.2135
     42 H20        17.8476   26.3355   17.7842 H         1 AO2         0.2155
     43 H21        15.5838   27.3996   17.6468 H         1 AO2         0.2041
     44 H22        13.8431   28.8966   18.6878 H         1 AO2         0.0499
     45 H23        12.8692   29.6699   20.8517 H         1 AO2         0.0525
     46 H24        16.3161   28.0397   22.9834 H         1 AO2         0.0525
     47 H25        17.2976   27.2647   20.8308 H         1 AO2         0.0499
     48 H26        12.9589   29.8904   23.1821 H         1 AO2         0.0366
     49 H27        14.6051   30.0995   23.8698 H         1 AO2         0.0366
     50 H28        13.7503   28.5295   24.0471 H         1 AO2         0.0366
@<TRIPOS>BOND
     1    1    2 1  
     2    1    6 1  
     3    2    3 1  
     4    3    4 1  
     5    4    5 1  
     6    5    6 1  
     7    6    7 1  
     8    7    8 1  
     9    8    9 1  
    10    8   10 1  
    11   10   11 1  
    12   10   12 1  
    13   12   13 2  
    14   12   14 am 
    15   14   15 1  
    16   15   16 1  
    17   16   17 ar 
    18   16   21 ar 
    19   17   18 ar 
    20   18   19 ar 
    21   19   20 ar 
    22   19   22 1  
    23   20   21 ar 
    24    1   23 1  
    25    1   24 1  
    26    2   25 1  
    27    2   26 1  
    28    3   27 1  
    29    3   28 1  
    30    4   29 1  
    31    4   30 1  
    32    5   31 1  
    33    5   32 1  
    34    6   33 1  
    35    7   34 1  
    36    7   35 1  
    37    8   36 1  
    38    9   37 1  
    39    9   38 1  
    40    9   39 1  
    41   10   40 1  
    42   11   41 1  
    43   14   42 1  
    44   15   43 1  
    45   17   44 1  
    46   18   45 1  
    47   20   46 1  
    48   21   47 1  
    49   22   48 1  
    50   22   49 1  
    51   22   50 1  
@<TRIPOS>SUBSTRUCTURE
     1 AO2         1

