### 
### Created by X-TOOL on Mon Sep 10 21:12:51 2018
### 

@<TRIPOS>MOLECULE
1r5y_ligand
   21    22     1     0     0
SMALL
GAST_HUCK


@<TRIPOS>ATOM
      1 C6         18.2500   16.9450   19.2760 C.ar      1 DQU         0.0312
      2 N4         19.2200   17.3220   18.2010 N.pl3     1 DQU        -0.3412
      3 C1         16.9740   16.5060   18.9080 C.ar      1 DQU        -0.0487
      4 C2         16.0290   16.2140   19.8680 C.ar      1 DQU        -0.0660
      5 C3         16.3140   16.4910   21.2240 C.ar      1 DQU        -0.0076
      6 N3         15.3500   16.3200   22.1950 N.2       1 DQU        -0.3133
      7 C8         15.5880   16.5350   23.4610 C.2       1 DQU         0.2280
      8 N2         14.6290   16.3330   24.4490 N.pl3     1 DQU        -0.2818
      9 N1         16.8210   17.0520   23.9220 N.am      1 DQU        -0.1802
     10 C7         17.8280   17.3260   22.9730 C.2       1 DQU         0.2303
     11 O1         18.9640   17.6720   23.3330 O.2       1 DQU        -0.3873
     12 C4         17.5640   17.0440   21.5690 C.ar      1 DQU         0.0454
     13 C5         18.5000   17.3140   20.5770 C.ar      1 DQU        -0.0345
     14 H1         19.0386   17.0487   17.2246 H         1 DQU         0.1692
     15 H2         20.0692   17.8549   18.4373 H         1 DQU         0.1692
     16 H3         16.7261   16.3944   17.8586 H         1 DQU         0.0536
     17 H4         15.0780   15.7768   19.5860 H         1 DQU         0.0515
     18 H5         13.7026   15.9588   24.1987 H         1 DQU         0.1894
     19 H6         14.8456   16.5577   25.4306 H         1 DQU         0.1894
     20 H7         16.9750   17.2190   24.8958 H         1 DQU         0.2503
     21 H8         19.4273   17.8156   20.8292 H         1 DQU         0.0532
@<TRIPOS>BOND
     1    1    2 1  
     2    1    3 ar 
     3    1   13 ar 
     4    3    4 ar 
     5    4    5 ar 
     6    5    6 1  
     7    5   12 ar 
     8    6    7 2  
     9    7    8 1  
    10    7    9 am 
    11    9   10 am 
    12   10   11 2  
    13   10   12 1  
    14   12   13 ar 
    15    2   14 1  
    16    2   15 1  
    17    3   16 1  
    18    4   17 1  
    19    8   18 1  
    20    8   19 1  
    21    9   20 1  
    22   13   21 1  
@<TRIPOS>SUBSTRUCTURE
     1 DQU         1

