### 
### Created by X-TOOL on Mon Sep 10 21:12:53 2018
### 

@<TRIPOS>MOLECULE
1r6g_ligand
   49    51     1     0     0
SMALL
GAST_HUCK


@<TRIPOS>ATOM
      1 O3         44.1220    2.7280   17.5560 O.co2     1 442        -0.5667
      2 C8         45.3060    3.1580   17.6040 C.2       1 442         0.0448
      3 O2         46.2680    2.4890   18.0550 O.co2     1 442        -0.5667
      4 C7         45.5010    4.5660   17.0710 C.3       1 442         0.0300
      5 C5         46.9000    4.5970   16.4620 C.ar      1 442        -0.0348
      6 C6         47.0470    4.0480   15.1910 C.ar      1 442        -0.0539
      7 C4         48.0360    5.0120   17.1770 C.ar      1 442        -0.0539
      8 C3         49.3180    4.9200   16.6270 C.ar      1 442         0.0414
      9 BR2        50.9260    5.4350   17.4480 Br        1 442        -0.0580
     10 C2         49.5040    4.3530   15.2940 C.ar      1 442         0.1267
     11 C1         48.2950    3.9200   14.5880 C.ar      1 442         0.0414
     12 BR1        48.4830    3.1900   12.8760 Br        1 442        -0.0580
     13 O4         50.7590    4.2800   14.7330 O.3       1 442        -0.2640
     14 C11        51.1400    5.2740   13.8500 C.ar      1 442         0.1109
     15 C12        52.0960    5.0160   12.8600 C.ar      1 442        -0.0166
     16 C13        52.4820    6.0230   11.9810 C.ar      1 442         0.0709
     17 C14        51.8560    7.3640   12.1160 C.ar      1 442         0.0989
     18 C15        50.9130    7.5830   13.1010 C.ar      1 442        -0.0339
     19 C16        50.5560    6.5490   13.9560 C.ar      1 442        -0.0318
     20 O          52.1660    8.3590   11.2990 O.3       1 442        -0.3342
     21 C17        53.4910    5.7690   10.8870 C.2       1 442         0.1972
     22 O1         54.3530    4.8870   10.9630 O.2       1 442        -0.3909
     23 N28        53.4300    6.5340    9.8090 N.am      1 442        -0.2862
     24 C29        54.6850    6.9700    9.2530 C.3       1 442         0.0396
     25 C30        54.6220    7.9450    8.0690 C.3       1 442         0.0010
     26 C31        54.7720    9.2350    8.8120 C.ar      1 442        -0.0411
     27 C36        56.0370    9.6020    9.2270 C.ar      1 442        -0.0603
     28 C35        56.1990   10.7180   10.0290 C.ar      1 442        -0.0686
     29 C32        53.6540    9.9360    9.2290 C.ar      1 442        -0.0603
     30 C33        53.8180   11.0500   10.0450 C.ar      1 442        -0.0686
     31 C34        55.0950   11.4440   10.4430 C.ar      1 442        -0.0687
     32 H1         45.4241    5.2979   17.8885 H         1 442         0.0569
     33 H2         44.7456    4.7921   16.3041 H         1 442         0.0569
     34 H3         46.1660    3.7112   14.6567 H         1 442         0.0585
     35 H4         47.9158    5.4124   18.1772 H         1 442         0.0585
     36 H5         52.5366    4.0289   12.7782 H         1 442         0.0574
     37 H6         50.4531    8.5590   13.2062 H         1 442         0.0532
     38 H7         49.8106    6.7284   14.7223 H         1 442         0.0566
     39 H8         52.8226    8.0650   10.6786 H         1 442         0.2475
     40 H9         52.5557    6.7964    9.4006 H         1 442         0.1842
     41 H10        55.2279    6.0744    8.9166 H         1 442         0.0542
     42 H11        55.2515    7.4615   10.0577 H         1 442         0.0542
     43 H12        53.6606    7.8856    7.5377 H         1 442         0.0446
     44 H13        55.4449    7.7820    7.3575 H         1 442         0.0446
     45 H14        56.8994    9.0183    8.9258 H         1 442         0.0557
     46 H15        57.1930   11.0247   10.3340 H         1 442         0.0599
     47 H16        52.6629    9.6207    8.9234 H         1 442         0.0557
     48 H17        52.9515   11.6131   10.3723 H         1 442         0.0599
     49 H18        55.2230   12.3158   11.0744 H         1 442         0.0559
@<TRIPOS>BOND
     1    1    2 ar 
     2    2    3 ar 
     3    2    4 1  
     4    4    5 1  
     5    5    6 ar 
     6    5    7 ar 
     7    6   11 ar 
     8    7    8 ar 
     9    8    9 1  
    10    8   10 ar 
    11   10   11 ar 
    12   10   13 1  
    13   11   12 1  
    14   13   14 1  
    15   14   15 ar 
    16   14   19 ar 
    17   15   16 ar 
    18   16   17 ar 
    19   16   21 1  
    20   17   18 ar 
    21   17   20 1  
    22   18   19 ar 
    23   21   22 2  
    24   21   23 am 
    25   23   24 1  
    26   24   25 1  
    27   25   26 1  
    28   26   27 ar 
    29   26   29 ar 
    30   27   28 ar 
    31   28   31 ar 
    32   29   30 ar 
    33   30   31 ar 
    34    4   32 1  
    35    4   33 1  
    36    6   34 1  
    37    7   35 1  
    38   15   36 1  
    39   18   37 1  
    40   19   38 1  
    41   20   39 1  
    42   23   40 1  
    43   24   41 1  
    44   24   42 1  
    45   25   43 1  
    46   25   44 1  
    47   27   45 1  
    48   28   46 1  
    49   29   47 1  
    50   30   48 1  
    51   31   49 1  
@<TRIPOS>SUBSTRUCTURE
     1 442         1

