### 
### Created by X-TOOL on Fri Sep 26 17:34:27 2014
### 

@<TRIPOS>MOLECULE
1r6n_ligand
   59    64     1     0     0
SMALL
GAST_HUCK


@<TRIPOS>ATOM
      1 C1         54.7630    3.8610    2.5120 C.3       1 MOL         0.1119
      2 C2         55.2350    3.4530    3.9070 C.ar      1 MOL        -0.0115
      3 O4         55.5630    4.8430    1.8900 O.3       1 MOL        -0.3468
      4 C5         54.8600    5.3850    0.7940 C.3       1 MOL         0.2176
      5 C6         53.4010    4.9130    0.8810 C.3       1 MOL         0.0767
      6 C8         53.3280    4.3140    2.2830 C.3       1 MOL         0.1053
      7 C10        55.0730    6.8780    0.8480 C.2       1 MOL         0.1938
      8 C11        55.8120    7.2950   -0.3460 C.ar      1 MOL         0.0467
      9 O12        54.6930    7.6050    1.7350 O.2       1 MOL        -0.3213
     10 C13        55.5260    4.9840   -0.4890 C.2       1 MOL         0.1900
     11 O14        55.5990    3.8600   -0.9290 O.2       1 MOL        -0.3256
     12 C15        56.2280    8.5840   -0.7190 C.ar      1 MOL        -0.0364
     13 C17        56.9380    8.7080   -1.9340 C.ar      1 MOL        -0.0351
     14 C19        57.2090    7.5780   -2.7280 C.ar      1 MOL        -0.0496
     15 C21        56.7760    6.2900   -2.3270 C.ar      1 MOL        -0.0443
     16 C23        56.0790    6.1840   -1.1300 C.ar      1 MOL         0.0460
     17 C24        52.3520    5.9820    0.5590 C.2       1 MOL         0.0414
     18 O25        51.2460    6.0980    1.0650 O.co2     1 MOL        -0.5688
     19 O26        52.7500    6.7900   -0.3170 O.co2     1 MOL        -0.5688
     20 C28        52.6750    4.9780    3.4900 C.2       1 MOL         0.2132
     21 O29        51.8010    4.5150    4.1830 O.2       1 MOL        -0.3840
     22 N30        53.2620    6.2280    3.6630 N.am      1 MOL        -0.2338
     23 C31        52.7790    7.1330    4.6580 C.ar      1 MOL         0.0655
     24 C33        52.9590    8.5110    4.5000 C.ar      1 MOL        -0.0423
     25 C35        52.5000    9.4070    5.4570 C.ar      1 MOL        -0.0695
     26 C37        51.8440    8.9530    6.6110 C.ar      1 MOL        -0.0220
     27 C38        51.3800    9.9250    7.6070 C.2       1 MOL         0.0866
     28 C39        51.6600    7.5650    6.7720 C.ar      1 MOL        -0.0695
     29 C41        52.1200    6.6700    5.8100 C.ar      1 MOL        -0.0423
     30 N43        50.1720   10.5690    7.4770 N.2       1 MOL        -0.1808
     31 N44        50.0220   11.3840    8.5190 N.2       1 MOL        -0.1306
     32 S46        51.2400   11.4140    9.6270 S.3       1 MOL         0.0625
     33 C47        52.0980   10.2730    8.7360 C.2       1 MOL         0.0494
     34 C49        56.5740    3.6450    4.3040 C.ar      1 MOL        -0.0433
     35 C51        57.0150    3.2700    5.5830 C.ar      1 MOL         0.0478
     36 C53        56.0970    2.6830    6.5090 C.ar      1 MOL         0.0469
     37 C55        54.7620    2.4910    6.1140 C.ar      1 MOL        -0.0540
     38 C57        54.3340    2.8680    4.8360 C.ar      1 MOL        -0.0570
     39 C3         57.4210   10.0920   -2.3970 C.3       1 MOL        -0.0276
     40 CL1        58.6500    3.5330    5.9850 Cl        1 MOL        -0.0718
     41 CL2        56.5820    2.2110    8.0870 Cl        1 MOL        -0.0764
     42 H1         54.8765    2.9409    1.9199 H         1 MOL         0.0786
     43 H2         53.2487    4.1063    0.1488 H         1 MOL         0.0499
     44 H3         52.7236    3.4029    2.1621 H         1 MOL         0.0611
     45 H4         56.0131    9.4476   -0.1001 H         1 MOL         0.0623
     46 H5         57.7553    7.6945   -3.6570 H         1 MOL         0.0610
     47 H6         56.9818    5.4160   -2.9343 H         1 MOL         0.0667
     48 H7         54.0316    6.4963    3.0836 H         1 MOL         0.2262
     49 H8         53.4644    8.8855    3.6172 H         1 MOL         0.0502
     50 H9         52.6506   10.4704    5.3103 H         1 MOL         0.0559
     51 H10        51.1547    7.1902    7.6547 H         1 MOL         0.0559
     52 H11        51.9685    5.6059    5.9507 H         1 MOL         0.0502
     53 H12        53.0723    9.8695    9.0078 H         1 MOL         0.1000
     54 H13        57.2762    4.0905    3.6087 H         1 MOL         0.0563
     55 H14        54.0564    2.0463    6.8064 H         1 MOL         0.0606
     56 H15        53.2999    2.7113    4.5511 H         1 MOL         0.0560
     57 H16        57.1224   10.8505   -1.6584 H         1 MOL         0.0403
     58 H17        56.9694   10.3310   -3.3711 H         1 MOL         0.0403
     59 H18        58.5168   10.0849   -2.4927 H         1 MOL         0.0403
@<TRIPOS>BOND
     1    1    2 1  
     2    1    3 1  
     3    1    6 1  
     4    2   34 ar 
     5    2   38 ar 
     6    3    4 1  
     7    4    5 1  
     8    4    7 1  
     9    4   10 1  
    10    5    6 1  
    11    5   17 1  
    12    6   20 1  
    13    7    8 1  
    14    7    9 2  
    15    8   12 ar 
    16    8   16 ar 
    17   10   11 2  
    18   10   16 1  
    19   12   13 ar 
    20   13   14 ar 
    21   13   39 1  
    22   14   15 ar 
    23   15   16 ar 
    24   17   18 ar 
    25   17   19 ar 
    26   20   21 2  
    27   20   22 am 
    28   22   23 1  
    29   23   24 ar 
    30   23   29 ar 
    31   24   25 ar 
    32   25   26 ar 
    33   26   27 1  
    34   26   28 ar 
    35   27   30 1  
    36   27   33 2  
    37   28   29 ar 
    38   30   31 2  
    39   31   32 1  
    40   32   33 1  
    41   34   35 ar 
    42   35   36 ar 
    43   35   40 1  
    44   36   37 ar 
    45   36   41 1  
    46   37   38 ar 
    47    1   42 1  
    48    5   43 1  
    49    6   44 1  
    50   12   45 1  
    51   14   46 1  
    52   15   47 1  
    53   22   48 1  
    54   24   49 1  
    55   25   50 1  
    56   28   51 1  
    57   29   52 1  
    58   33   53 1  
    59   34   54 1  
    60   37   55 1  
    61   38   56 1  
    62   39   57 1  
    63   39   58 1  
    64   39   59 1  
@<TRIPOS>SUBSTRUCTURE
     1 MOL         1

