### 
### Created by X-TOOL on Sun Sep  9 21:50:11 2018
### 

@<TRIPOS>MOLECULE
1r6z_ligand
   45    46     1     0     0
SMALL
GAST_HUCK


@<TRIPOS>ATOM
      1 C1         36.0640   92.3140   -1.2490 C.3       1 NON         0.1884
      2 C2         37.2190   91.3780   -1.7100 C.3       1 NON         0.1341
      3 C3         38.1590   92.1320   -2.6160 C.3       1 NON         0.1141
      4 C4         37.3180   92.6800   -3.8230 C.3       1 NON         0.1119
      5 C5         36.2220   93.5850   -3.3130 C.3       1 NON         0.1130
      6 C6         35.3160   94.0360   -4.4130 C.3       1 NON         0.0730
      7 O1         36.7270   93.3000   -0.4780 O.3       1 NON        -0.3401
      8 O2         37.9260   90.8320   -0.5660 O.3       1 NON        -0.3841
      9 O3         39.2090   91.2740   -3.0960 O.3       1 NON        -0.3864
     10 O4         38.1260   93.4220   -4.7380 O.3       1 NON        -0.3865
     11 O5         35.4150   92.8430   -2.3560 O.3       1 NON        -0.3405
     12 O6         34.3920   95.1080   -3.9320 O.3       1 NON        -0.3924
     13 C1'        35.8060   95.3850    3.0780 C.3       1 NON         0.1854
     14 C2'        35.9080   93.8700    3.1300 C.3       1 NON         0.1339
     15 C3'        36.6880   93.3540    1.9390 C.3       1 NON         0.1144
     16 C4'        35.9970   93.7830    0.6740 C.3       1 NON         0.1184
     17 C5'        36.0880   95.3540    0.5960 C.3       1 NON         0.1134
     18 C6'        35.3660   95.9130   -0.6410 C.3       1 NON         0.0730
     19 O1'        36.9860   95.9440    3.3780 O.3       1 NON        -0.3649
     20 O2'        36.5790   93.4840    4.2990 O.3       1 NON        -0.3841
     21 O3'        36.6780   91.9290    2.0570 O.3       1 NON        -0.3864
     22 O5'        35.5680   95.9150    1.8190 O.3       1 NON        -0.3407
     23 O6'        35.5780   97.3190   -0.5240 O.3       1 NON        -0.3924
     24 H1         35.3364   91.7682   -0.6304 H         1 NON         0.0938
     25 H2         36.7847   90.5419   -2.2777 H         1 NON         0.0671
     26 H3         38.6063   92.9719   -2.0643 H         1 NON         0.0648
     27 H4         36.8686   91.8280   -4.3541 H         1 NON         0.0647
     28 H5         36.6732   94.4626   -2.8271 H         1 NON         0.0647
     29 H6         34.7225   93.1796   -4.7657 H         1 NON         0.0584
     30 H7         35.9228   94.4281   -5.2424 H         1 NON         0.0584
     31 H8         38.6023   90.2369   -0.8676 H         1 NON         0.2101
     32 H9         38.8281   90.5435   -3.5690 H         1 NON         0.2100
     33 H10        38.8213   92.8652   -5.0682 H         1 NON         0.2100
     34 H11        34.9009   95.8508   -3.6292 H         1 NON         0.2095
     35 H12        35.0229   95.7062    3.7805 H         1 NON         0.0935
     36 H13        34.8968   93.4371    3.1231 H         1 NON         0.0671
     37 H14        37.7195   93.7359    1.9506 H         1 NON         0.0648
     38 H15        34.9541   93.4334    0.6602 H         1 NON         0.0651
     39 H16        37.1492   95.6319    0.5150 H         1 NON         0.0647
     40 H17        34.2933   95.6710   -0.6164 H         1 NON         0.0584
     41 H18        35.8091   95.5216   -1.5686 H         1 NON         0.0584
     42 H19        36.8965   96.8898    3.3769 H         1 NON         0.2126
     43 H20        36.6351   92.5363    4.3323 H         1 NON         0.2101
     44 H21        37.1299   91.5476    1.3135 H         1 NON         0.2100
     45 H22        35.2010   97.6282    0.2914 H         1 NON         0.2095
@<TRIPOS>BOND
     1    1    2 1  
     2    7    1 1  
     3    1   11 1  
     4    2    3 1  
     5    2    8 1  
     6    3    4 1  
     7    3    9 1  
     8    5    4 1  
     9    4   10 1  
    10    5    6 1  
    11   11    5 1  
    12    6   12 1  
    13   16    7 1  
    14   14   13 1  
    15   13   19 1  
    16   13   22 1  
    17   15   14 1  
    18   14   20 1  
    19   15   16 1  
    20   15   21 1  
    21   16   17 1  
    22   17   18 1  
    23   17   22 1  
    24   18   23 1  
    25    1   24 1  
    26    2   25 1  
    27    3   26 1  
    28    4   27 1  
    29    5   28 1  
    30    6   29 1  
    31    6   30 1  
    32    8   31 1  
    33    9   32 1  
    34   10   33 1  
    35   12   34 1  
    36   13   35 1  
    37   14   36 1  
    38   15   37 1  
    39   16   38 1  
    40   17   39 1  
    41   18   40 1  
    42   18   41 1  
    43   19   42 1  
    44   20   43 1  
    45   21   44 1  
    46   23   45 1  
@<TRIPOS>SUBSTRUCTURE
     1 NON         1

