### 
### Created by X-TOOL on Mon Sep 10 21:12:52 2018
### 

@<TRIPOS>MOLECULE
1r78_ligand
   49    51     1     0     0
SMALL
GAST_HUCK


@<TRIPOS>ATOM
      1 F17        16.8200   -6.2940   12.7790 F         1 FMD        -0.1951
      2 C1         16.0240   -7.2080   13.3630 C.ar      1 FMD         0.1268
      3 C2         14.8770   -7.6070   12.6580 C.ar      1 FMD         0.0445
      4 C18        14.5880   -7.0390   11.4020 C.1       1 FMD        -0.0740
      5 C19        14.3260   -6.5710   10.3330 C.1       1 FMD        -0.0667
      6 C20        13.9630   -6.0270    9.0860 C.3       1 FMD         0.1581
      7 O27        14.1610   -4.6110    9.1400 O.3       1 FMD        -0.3743
      8 C23        14.6030   -6.7310    7.8620 C.3       1 FMD         0.0392
      9 N28        15.0060   -8.1160    8.1400 N.4       1 FMD         0.2251
     10 C24        13.5260   -6.7260    6.7610 C.3       1 FMD         0.0981
     11 O26        14.0860   -6.7570    5.4410 O.3       1 FMD        -0.3864
     12 C25        12.5500   -5.5320    6.8670 C.3       1 FMD        -0.0335
     13 C3         14.0350   -8.6160   13.3210 C.ar      1 FMD         0.0057
     14 C4         14.4160   -9.1250   14.6010 C.ar      1 FMD         0.0630
     15 N9         13.4400  -10.0330   14.9620 N.am      1 FMD        -0.2433
     16 C8         12.4300  -10.2030   13.9990 C.2       1 FMD         0.2060
     17 O10        11.4920  -10.9640   14.1290 O.2       1 FMD        -0.3903
     18 C5         15.5580   -8.6850   15.2550 C.ar      1 FMD        -0.0475
     19 C6         16.3660   -7.7200   14.6230 C.ar      1 FMD        -0.0452
     20 C7         12.8870   -9.2350   12.9440 C.2       1 FMD         0.0328
     21 C11        12.1510   -9.0080   11.6890 C.2       1 FMD        -0.0300
     22 C12        10.8900   -9.5210   11.1570 C.2       1 FMD         0.0935
     23 C13        10.2570   -9.2220    9.9660 C.2       1 FMD         0.0982
     24 O21        10.7020   -8.3290    9.0100 O.3       1 FMD        -0.3307
     25 C22        10.2500   -8.4690    7.6530 C.3       1 FMD         0.0570
     26 C14         9.0360  -10.0210    9.9770 C.2       1 FMD        -0.0285
     27 C15         9.0230  -10.7450   11.1260 C.2       1 FMD         0.0267
     28 N16        10.1410  -10.4580   11.8400 N.pl3     1 FMD        -0.2840
     29 H1         12.8801   -6.1868    8.9779 H         1 FMD         0.0784
     30 H2         15.0749   -4.4269    9.3231 H         1 FMD         0.2113
     31 H3         15.4862   -6.1637    7.5331 H         1 FMD         0.0911
     32 H4         15.4135   -8.5201    7.3113 H         1 FMD         0.1999
     33 H5         14.1977   -8.6528    8.4129 H         1 FMD         0.1999
     34 H6         15.6834   -8.1255    8.8864 H         1 FMD         0.1999
     35 H7         12.9362   -7.6452    6.8920 H         1 FMD         0.0648
     36 H8         14.6371   -5.9937    5.3140 H         1 FMD         0.2100
     37 H9         11.8107   -5.5896    6.0546 H         1 FMD         0.0256
     38 H10        13.1124   -4.5902    6.7848 H         1 FMD         0.0256
     39 H11        12.0323   -5.5665    7.8369 H         1 FMD         0.0256
     40 H12        13.4508  -10.5262   15.8319 H         1 FMD         0.2226
     41 H13        15.8224   -9.0755   16.2310 H         1 FMD         0.0482
     42 H14        17.2644   -7.3683   15.1172 H         1 FMD         0.0523
     43 H15        12.6508   -8.3124   11.0165 H         1 FMD         0.0699
     44 H16        10.7005   -7.6797    7.0332 H         1 FMD         0.0576
     45 H17         9.1541   -8.3800    7.6205 H         1 FMD         0.0576
     46 H18        10.5495   -9.4543    7.2665 H         1 FMD         0.0576
     47 H19         8.2713  -10.0344    9.2018 H         1 FMD         0.0333
     48 H20         8.2423  -11.4425   11.4257 H         1 FMD         0.0956
     49 H21        10.3912  -10.8739   12.7485 H         1 FMD         0.2282
@<TRIPOS>BOND
     1    1    2 1  
     2    2    3 ar 
     3    2   19 ar 
     4    3    4 1  
     5    3   13 ar 
     6    4    5 3  
     7    5    6 1  
     8    6    7 1  
     9    6    8 1  
    10    8    9 1  
    11    8   10 1  
    12   10   11 1  
    13   10   12 1  
    14   13   14 ar 
    15   13   20 1  
    16   14   15 1  
    17   14   18 ar 
    18   15   16 am 
    19   16   17 2  
    20   16   20 1  
    21   18   19 ar 
    22   20   21 2  
    23   21   22 1  
    24   22   23 2  
    25   22   28 1  
    26   23   24 1  
    27   23   26 1  
    28   24   25 1  
    29   26   27 2  
    30   27   28 1  
    31    6   29 1  
    32    7   30 1  
    33    8   31 1  
    34    9   32 1  
    35    9   33 1  
    36    9   34 1  
    37   10   35 1  
    38   11   36 1  
    39   12   37 1  
    40   12   38 1  
    41   12   39 1  
    42   15   40 1  
    43   18   41 1  
    44   19   42 1  
    45   21   43 1  
    46   25   44 1  
    47   25   45 1  
    48   25   46 1  
    49   26   47 1  
    50   27   48 1  
    51   28   49 1  
@<TRIPOS>SUBSTRUCTURE
     1 FMD         1

