### 
### Created by X-TOOL on Mon Sep 10 21:12:51 2018
### 

@<TRIPOS>MOLECULE
1r9l_ligand
   19    18     1     0     0
SMALL
GAST_HUCK


@<TRIPOS>ATOM
      1 N          26.6760   22.9550   72.6820 N.4       1 BET         0.2484
      2 CA         25.2290   22.9420   72.3760 C.3       1 BET         0.0222
      3 C          24.2530   22.8310   73.5110 C.2       1 BET         0.0813
      4 O1         23.0980   23.1860   73.3110 O.co2     1 BET        -0.5645
      5 O2         24.6270   22.3770   74.6580 O.co2     1 BET        -0.5645
      6 C1         27.3580   23.3720   71.4420 C.3       1 BET        -0.0405
      7 C2         27.0140   23.9190   73.7460 C.3       1 BET        -0.0405
      8 C3         27.0870   21.5820   73.0400 C.3       1 BET        -0.0405
      9 H1         25.0470   22.0873   71.7079 H         1 BET         0.0989
     10 H2         25.0021   23.8779   71.8443 H         1 BET         0.0989
     11 H3         28.4444   23.3993   71.6125 H         1 BET         0.0778
     12 H4         27.0075   24.3728   71.1495 H         1 BET         0.0778
     13 H5         27.1308   22.6548   70.6395 H         1 BET         0.0778
     14 H6         26.5137   23.6242   74.6803 H         1 BET         0.0778
     15 H7         26.6772   24.9238   73.4510 H         1 BET         0.0778
     16 H8         28.1031   23.9279   73.9003 H         1 BET         0.0778
     17 H9         26.8188   20.8945   72.2242 H         1 BET         0.0778
     18 H10        26.5732   21.2742   73.9626 H         1 BET         0.0778
     19 H11        28.1750   21.5548   73.1996 H         1 BET         0.0778
@<TRIPOS>BOND
     1    1    2 1  
     2    1    6 1  
     3    1    7 1  
     4    1    8 1  
     5    2    3 1  
     6    3    4 ar 
     7    3    5 ar 
     8    2    9 1  
     9    2   10 1  
    10    6   11 1  
    11    6   12 1  
    12    6   13 1  
    13    7   14 1  
    14    7   15 1  
    15    7   16 1  
    16    8   17 1  
    17    8   18 1  
    18    8   19 1  
@<TRIPOS>SUBSTRUCTURE
     1 BET         1

