### 
### Created by X-TOOL on Mon Sep 10 21:12:44 2018
### 

@<TRIPOS>MOLECULE
1rbp_ligand
   51    51     1     0     0
SMALL
GAST_HUCK


@<TRIPOS>ATOM
      1 C1         29.6110   21.3730   45.3130 C.3       1 RTL        -0.0970
      2 C2         29.3530   21.3820   43.7990 C.3       1 RTL        -0.1037
      3 C3         30.4050   20.8400   42.9870 C.3       1 RTL        -0.0389
      4 C4         30.6780   19.3750   43.2780 C.3       1 RTL         0.0374
      5 C5         30.8700   19.1360   44.7590 C.2       1 RTL         0.0234
      6 C6         30.3910   20.0230   45.7170 C.2       1 RTL        -0.0560
      7 C7         30.4140   19.7480   47.1870 C.2       1 RTL        -0.0696
      8 C8         31.5340   19.5570   47.9200 C.2       1 RTL        -0.0618
      9 C9         31.6150   19.2890   49.3280 C.2       1 RTL        -0.0512
     10 C10        32.8690   19.1060   49.8290 C.2       1 RTL        -0.0715
     11 C11        33.2410   18.8890   51.2130 C.2       1 RTL        -0.0806
     12 C12        34.5270   18.6650   51.5950 C.2       1 RTL        -0.0755
     13 C13        34.9590   18.4900   52.9750 C.2       1 RTL        -0.0586
     14 C14        36.2680   18.2380   53.2300 C.2       1 RTL        -0.0536
     15 C15        36.7580   18.0420   54.5870 C.3       1 RTL         0.0699
     16 C16        28.2410   21.4810   46.0260 C.3       1 RTL        -0.1205
     17 C17        30.4560   22.5970   45.6860 C.3       1 RTL        -0.1205
     18 C18        31.7370   17.8970   45.0050 C.3       1 RTL         0.0278
     19 C19        30.2950   19.1560   50.1160 C.3       1 RTL        -0.0323
     20 C20        33.8890   18.6090   54.1090 C.3       1 RTL        -0.0401
     21 O21        38.1220   17.7880   54.8970 O.3       1 RTL        -0.3824
     22 H1         29.1901   22.4250   43.4897 H         1 RTL         0.0062
     23 H2         28.4419   20.7962   43.6075 H         1 RTL         0.0062
     24 H3         31.3249   21.4130   43.1753 H         1 RTL         0.0308
     25 H4         30.1201   20.9410   41.9294 H         1 RTL         0.0308
     26 H5         31.5893   19.0673   42.7442 H         1 RTL         0.0732
     27 H6         29.8262   18.7748   42.9256 H         1 RTL         0.0732
     28 H7         29.4576   19.6979   47.7054 H         1 RTL         0.0605
     29 H8         32.4796   19.6126   47.3826 H         1 RTL         0.0560
     30 H9         33.6844   19.1249   49.1074 H         1 RTL         0.0484
     31 H10        32.4627   18.9059   51.9745 H         1 RTL         0.0518
     32 H11        35.2858   18.6129   50.8156 H         1 RTL         0.0522
     33 H12        36.9694   18.1810   52.3989 H         1 RTL         0.0600
     34 H13        36.1934   17.1887   54.9908 H         1 RTL         0.0731
     35 H14        36.4885   18.9543   55.1393 H         1 RTL         0.0731
     36 H15        28.3933   21.4770   47.1154 H         1 RTL         0.0022
     37 H16        27.6108   20.6258   45.7408 H         1 RTL         0.0022
     38 H17        27.7456   22.4169   45.7285 H         1 RTL         0.0022
     39 H18        31.4337   22.5338   45.1859 H         1 RTL         0.0022
     40 H19        30.6027   22.6230   46.7759 H         1 RTL         0.0022
     41 H20        29.9379   23.5123   45.3638 H         1 RTL         0.0022
     42 H21        31.8612   17.7455   46.0874 H         1 RTL         0.0698
     43 H22        32.7231   18.0412   44.5394 H         1 RTL         0.0698
     44 H23        31.2491   17.0148   44.5649 H         1 RTL         0.0698
     45 H24        29.4463   19.3615   49.4470 H         1 RTL         0.0396
     46 H25        30.2898   19.8768   50.9469 H         1 RTL         0.0396
     47 H26        30.2078   18.1349   50.5157 H         1 RTL         0.0396
     48 H27        32.9044   18.8150   53.6639 H         1 RTL         0.0350
     49 H28        34.1636   19.4301   54.7876 H         1 RTL         0.0350
     50 H29        33.8462   17.6657   54.6732 H         1 RTL         0.0350
     51 H30        38.2195   17.6927   55.8371 H         1 RTL         0.2132
@<TRIPOS>BOND
     1    1    2 1  
     2    1    6 1  
     3    1   16 1  
     4    1   17 1  
     5    2    3 1  
     6    3    4 1  
     7    4    5 1  
     8    5    6 2  
     9    5   18 1  
    10    6    7 1  
    11    7    8 2  
    12    8    9 1  
    13    9   10 2  
    14    9   19 1  
    15   10   11 1  
    16   11   12 2  
    17   12   13 1  
    18   13   14 2  
    19   13   20 1  
    20   14   15 1  
    21   15   21 1  
    22    2   22 1  
    23    2   23 1  
    24    3   24 1  
    25    3   25 1  
    26    4   26 1  
    27    4   27 1  
    28    7   28 1  
    29    8   29 1  
    30   10   30 1  
    31   11   31 1  
    32   12   32 1  
    33   14   33 1  
    34   15   34 1  
    35   15   35 1  
    36   16   36 1  
    37   16   37 1  
    38   16   38 1  
    39   17   39 1  
    40   17   40 1  
    41   17   41 1  
    42   18   42 1  
    43   18   43 1  
    44   18   44 1  
    45   19   45 1  
    46   19   46 1  
    47   19   47 1  
    48   20   48 1  
    49   20   49 1  
    50   20   50 1  
    51   21   51 1  
@<TRIPOS>SUBSTRUCTURE
     1 RTL         1

