### 
### Created by X-TOOL on Mon Sep 10 21:12:45 2018
### 

@<TRIPOS>MOLECULE
1rdi_ligand
   26    26     1     0     0
SMALL
GAST_HUCK


@<TRIPOS>ATOM
      1 C1          3.7250   47.9950    0.9270 C.3       1 MFU         0.1875
      2 C2          4.2030   46.8310    1.7950 C.3       1 MFU         0.1341
      3 C3          3.0170   46.0070    2.2690 C.3       1 MFU         0.1140
      4 C4          2.2300   45.5160    1.0540 C.3       1 MFU         0.1095
      5 C5          1.8170   46.7080    0.1770 C.3       1 MFU         0.0873
      6 C6          1.1410   46.2830   -1.1180 C.3       1 MFU        -0.0361
      7 O1          2.9890   48.8900    1.7130 O.3       1 MFU        -0.3520
      8 O2          4.9040   47.3240    2.9230 O.3       1 MFU        -0.3841
      9 O3          3.4980   44.8950    3.0100 O.3       1 MFU        -0.3864
     10 O4          3.0420   44.6180    0.3160 O.3       1 MFU        -0.3866
     11 O5          2.9720   47.5020   -0.1850 O.3       1 MFU        -0.3431
     12 CM          2.7480   50.1760    1.1080 C.3       1 MFU         0.0395
     13 H1          4.6050   48.5257    0.5347 H         1 MFU         0.0937
     14 H2          4.8736   46.1924    1.2013 H         1 MFU         0.0671
     15 H3          2.3659   46.6233    2.9063 H         1 MFU         0.0648
     16 H4          1.3252   44.9911    1.3942 H         1 MFU         0.0646
     17 H5          1.1169   47.3299    0.7541 H         1 MFU         0.0621
     18 H6          0.8699   47.1760   -1.7003 H         1 MFU         0.0255
     19 H7          0.2330   45.7071   -0.8858 H         1 MFU         0.0255
     20 H8          1.8313   45.6587   -1.7043 H         1 MFU         0.0255
     21 H9          5.6555   47.8271    2.6323 H         1 MFU         0.2101
     22 H10         2.7626   44.3741    3.3104 H         1 MFU         0.2100
     23 H11         3.8294   45.0664    0.0305 H         1 MFU         0.2100
     24 H12         2.1661   50.8032    1.7994 H         1 MFU         0.0525
     25 H13         2.1849   50.0415    0.1727 H         1 MFU         0.0525
     26 H14         3.7091   50.6647    0.8903 H         1 MFU         0.0525
@<TRIPOS>BOND
     1    1   11 1  
     2    1    7 1  
     3    1    2 1  
     4    2    8 1  
     5    2    3 1  
     6    3    9 1  
     7    3    4 1  
     8    4   10 1  
     9    4    5 1  
    10    5   11 1  
    11    5    6 1  
    12    7   12 1  
    13    1   13 1  
    14    2   14 1  
    15    3   15 1  
    16    4   16 1  
    17    5   17 1  
    18    6   18 1  
    19    6   19 1  
    20    6   20 1  
    21    8   21 1  
    22    9   22 1  
    23   10   23 1  
    24   12   24 1  
    25   12   25 1  
    26   12   26 1  
@<TRIPOS>SUBSTRUCTURE
     1 MFU         1

