### 
### Created by X-TOOL on Mon Sep 10 21:12:45 2018
### 

@<TRIPOS>MOLECULE
1rdj_ligand
   23    23     1     0     0
SMALL
GAST_HUCK


@<TRIPOS>ATOM
      1 C1          3.8870   47.7670    0.6980 C.3       1 MFB         0.1853
      2 C2          4.3080   46.6830    1.6840 C.3       1 MFB         0.1339
      3 C3          3.0830   45.9350    2.1830 C.3       1 MFB         0.1140
      4 C4          2.3190   45.3520    0.9930 C.3       1 MFB         0.1095
      5 C5          1.9710   46.4800    0.0140 C.3       1 MFB         0.0873
      6 C6          1.2930   45.9900   -1.2520 C.3       1 MFB        -0.0361
      7 O1          5.0130   48.4770    0.2650 O.3       1 MFB        -0.3649
      8 O2          4.9740   47.2660    2.7790 O.3       1 MFB        -0.3841
      9 O3          3.4910   44.8900    3.0510 O.3       1 MFB        -0.3864
     10 O4          3.1300   44.3810    0.3430 O.3       1 MFB        -0.3866
     11 O5          3.1750   47.1760   -0.3830 O.3       1 MFB        -0.3433
     12 H1          3.2139   48.4696    1.2111 H         1 MFB         0.0935
     13 H2          4.9848   45.9777    1.1795 H         1 MFB         0.0671
     14 H3          2.4287   46.6293    2.7306 H         1 MFB         0.0648
     15 H4          1.3927   44.8766    1.3477 H         1 MFB         0.0646
     16 H5          1.2959   47.1819    0.5255 H         1 MFB         0.0621
     17 H6          1.0730   46.8471   -1.9054 H         1 MFB         0.0255
     18 H7          0.3552   45.4777   -0.9910 H         1 MFB         0.0255
     19 H8          1.9593   45.2900   -1.7774 H         1 MFB         0.0255
     20 H9          5.4567   48.8534    1.0160 H         1 MFB         0.2126
     21 H10         5.7452   47.7270    2.4703 H         1 MFB         0.2101
     22 H11         2.7254   44.4221    3.3632 H         1 MFB         0.2100
     23 H12         3.9301   44.7918    0.0373 H         1 MFB         0.2100
@<TRIPOS>BOND
     1    1   11 1  
     2    1    7 1  
     3    1    2 1  
     4    2    8 1  
     5    2    3 1  
     6    3    9 1  
     7    3    4 1  
     8    4   10 1  
     9    4    5 1  
    10    5   11 1  
    11    5    6 1  
    12    1   12 1  
    13    2   13 1  
    14    3   14 1  
    15    4   15 1  
    16    5   16 1  
    17    6   17 1  
    18    6   18 1  
    19    6   19 1  
    20    7   20 1  
    21    8   21 1  
    22    9   22 1  
    23   10   23 1  
@<TRIPOS>SUBSTRUCTURE
     1 MFB         1

