### 
### Created by X-TOOL on Fri Nov 18 12:05:11 2016
### 

@<TRIPOS>MOLECULE
1rdl_ligand
   24    24     1     0     0
SMALL
GAST_HUCK


@<TRIPOS>ATOM
      1 C1          2.0340   46.4730    0.1180 C.3       1 MMA         0.1854
      2 C2          2.3850   45.3740    1.1240 C.3       1 MMA         0.1339
      3 C3          3.0440   45.9990    2.3600 C.3       1 MMA         0.1141
      4 C4          4.2460   46.8250    1.9420 C.3       1 MMA         0.1119
      5 C5          3.8550   47.8640    0.8910 C.3       1 MMA         0.1130
      6 C6          5.0800   48.5910    0.3550 C.3       1 MMA         0.0730
      7 O1          1.0350   47.2970    0.6560 O.3       1 MMA        -0.3649
      8 O2          3.2810   44.4590    0.5230 O.3       1 MMA        -0.3841
      9 O3          3.4850   44.9810    3.2460 O.3       1 MMA        -0.3864
     10 O4          4.7920   47.4640    3.0810 O.3       1 MMA        -0.3865
     11 O5          3.2090   47.2120   -0.2310 O.3       1 MMA        -0.3407
     12 O6          4.7640   49.3670   -0.7930 O.3       1 MMA        -0.3924
     13 H1          1.6399   46.0030   -0.7951 H         1 MMA         0.0935
     14 H2          1.4683   44.8461    1.4254 H         1 MMA         0.0671
     15 H3          2.3147   46.6428    2.8733 H         1 MMA         0.0648
     16 H4          5.0041   46.1554    1.5097 H         1 MMA         0.0647
     17 H5          3.1660   48.5914    1.3450 H         1 MMA         0.0647
     18 H6          5.8463   47.8494    0.0853 H         1 MMA         0.0584
     19 H7          5.4727   49.2556    1.1387 H         1 MMA         0.0584
     20 H8          0.2749   46.7704    0.8737 H         1 MMA         0.2126
     21 H9          4.0721   44.9164    0.2633 H         1 MMA         0.2101
     22 H10         2.7419   44.4546    3.5168 H         1 MMA         0.2100
     23 H11         5.5639   47.9561    2.8271 H         1 MMA         0.2100
     24 H12         5.5474   49.8067   -1.1021 H         1 MMA         0.2095
@<TRIPOS>BOND
     1    1    2 1  
     2    1    7 1  
     3    1   11 1  
     4    2    3 1  
     5    2    8 1  
     6    3    4 1  
     7    3    9 1  
     8    4    5 1  
     9    4   10 1  
    10    5    6 1  
    11    5   11 1  
    12    6   12 1  
    13    1   13 1  
    14    2   14 1  
    15    3   15 1  
    16    4   16 1  
    17    5   17 1  
    18    6   18 1  
    19    6   19 1  
    20    7   20 1  
    21    8   21 1  
    22    9   22 1  
    23   10   23 1  
    24   12   24 1  
@<TRIPOS>SUBSTRUCTURE
     1 MMA         1

