### 
### Created by X-TOOL on Fri Nov 18 12:05:12 2016
### 

@<TRIPOS>MOLECULE
1rdn_ligand
   30    30     1     0     0
SMALL
GAST_HUCK


@<TRIPOS>ATOM
      1 C1          2.3560   46.6760   -0.1570 C.3       1 MAG         0.1823
      2 C2          2.6330   45.5650    0.8730 C.3       1 MAG         0.1208
      3 C3          3.2130   46.1620    2.1560 C.3       1 MAG         0.1110
      4 C4          4.4390   46.9740    1.8190 C.3       1 MAG         0.1116
      5 C5          4.1110   48.0510    0.7740 C.3       1 MAG         0.1130
      6 C6          5.3690   48.7940    0.3360 C.3       1 MAG         0.0730
      7 C7          1.2540   43.5570    1.0170 C.2       1 MAG         0.1733
      8 C8         -0.1100   43.0150    1.4250 C.3       1 MAG         0.0257
      9 N2          1.4030   44.8610    1.1940 N.am      1 MAG        -0.2766
     10 O1          1.2970   47.4780    0.2890 O.3       1 MAG        -0.3651
     11 O3          3.5730   45.1240    3.0580 O.3       1 MAG        -0.3867
     12 O4          4.9360   47.5780    2.9980 O.3       1 MAG        -0.3865
     13 O5          3.5370   47.4400   -0.4030 O.3       1 MAG        -0.3410
     14 O6          5.1100   49.6890   -0.7340 O.3       1 MAG        -0.3924
     15 O7          2.1390   42.8500    0.5360 O.2       1 MAG        -0.3974
     16 H1          2.0537   46.2045   -1.1037 H         1 MAG         0.0932
     17 H2          3.3560   44.8544    0.4460 H         1 MAG         0.0633
     18 H3          2.4609   46.8110    2.6283 H         1 MAG         0.0645
     19 H4          5.2080   46.3041    1.4067 H         1 MAG         0.0647
     20 H5          3.3955   48.7648    1.2082 H         1 MAG         0.0647
     21 H6          6.1207   48.0596    0.0111 H         1 MAG         0.0584
     22 H7          5.7601   49.3655    1.1907 H         1 MAG         0.0584
     23 H8         -0.1427   41.9305    1.2440 H         1 MAG         0.0467
     24 H9         -0.8934   43.5094    0.8319 H         1 MAG         0.0467
     25 H10        -0.2788   43.2136    2.4937 H         1 MAG         0.0467
     26 H11         0.6355   45.3840    1.5648 H         1 MAG         0.1857
     27 H12         0.5323   46.9351    0.4410 H         1 MAG         0.2126
     28 H13         2.8027   44.6111    3.2725 H         1 MAG         0.2100
     29 H14         5.7083   48.0902    2.7888 H         1 MAG         0.2100
     30 H15         5.9148   50.1311   -0.9774 H         1 MAG         0.2095
@<TRIPOS>BOND
     1    1   13 1  
     2    1   10 1  
     3    1    2 1  
     4    2    9 1  
     5    2    3 1  
     6    3   11 1  
     7    3    4 1  
     8    4   12 1  
     9    4    5 1  
    10    5   13 1  
    11    5    6 1  
    12    6   14 1  
    13    9    7 am 
    14    7   15 2  
    15    7    8 1  
    16    1   16 1  
    17    2   17 1  
    18    3   18 1  
    19    4   19 1  
    20    5   20 1  
    21    6   21 1  
    22    6   22 1  
    23    8   23 1  
    24    8   24 1  
    25    8   25 1  
    26    9   26 1  
    27   10   27 1  
    28   11   28 1  
    29   12   29 1  
    30   14   30 1  
@<TRIPOS>SUBSTRUCTURE
     1 MAG         1

