### 
### Created by X-TOOL on Mon Sep 10 21:12:52 2018
### 

@<TRIPOS>MOLECULE
1rdt_ligand
   55    58     1     0     0
SMALL
GAST_HUCK


@<TRIPOS>ATOM
      1 C          10.7170   36.2230   45.5440 C.2       1 L79        -0.0380
      2 C1         11.7060   35.4770   46.1770 C.2       1 L79         0.1154
      3 O          12.7460   35.2610   45.3090 O.3       1 L79        -0.2589
      4 C2         12.4220   35.8680   44.1240 C.2       1 L79         0.1181
      5 C3         11.1730   36.4650   44.2540 C.2       1 L79        -0.0014
      6 C4         11.5890   35.0460   47.4750 C.2       1 L79        -0.0246
      7 C5         12.1340   33.9130   47.9100 C.2       1 L79        -0.0375
      8 C6         12.0190   33.4180   49.3210 C.2       1 L79         0.0433
      9 O1         12.6700   32.4120   49.6010 O.co2     1 L79        -0.5673
     10 O7         11.2670   33.9590   50.1300 O.co2     1 L79        -0.5673
     11 C8         10.4750   37.2330   43.1460 C.3       1 L79         0.0494
     12 C9         11.4110   37.5540   41.9780 C.3       1 L79         0.0031
     13 C10        12.5720   36.5990   41.6880 C.2       1 L79        -0.0671
     14 C11        13.2600   35.9040   42.8630 C.2       1 L79        -0.0315
     15 C12         9.0150   37.0690   42.7910 C.ar      1 L79         0.0309
     16 C13         8.2720   38.0890   42.3230 C.ar      1 L79        -0.0060
     17 C14         6.9700   37.9980   41.9940 C.ar      1 L79        -0.0415
     18 C15         6.2530   39.2330   41.4750 C.3       1 L79        -0.0374
     19 C16         4.7620   39.1060   41.1670 C.3       1 L79        -0.0780
     20 C17         6.2980   40.4060   42.4540 C.3       1 L79        -0.0815
     21 C18         6.8620   39.7600   40.1760 C.3       1 L79        -0.0815
     22 C19         6.3590   36.8020   42.1430 C.ar      1 L79        -0.0512
     23 C20         4.8980   36.5650   41.8130 C.3       1 L79        -0.0491
     24 C21         4.0710   36.2260   43.0520 C.3       1 L79        -0.0889
     25 C22         4.1410   37.7090   41.1370 C.3       1 L79        -0.0836
     26 C23         4.6760   35.4050   40.8430 C.3       1 L79        -0.0889
     27 C24         7.0960   35.7750   42.6110 C.ar      1 L79        -0.0245
     28 C25         8.3940   35.8850   42.9320 C.ar      1 L79        -0.0022
     29 H1          9.7724   36.5522   45.9744 H         1 L79         0.0423
     30 H2         11.0261   35.6575   48.1786 H         1 L79         0.0679
     31 H3         12.6969   33.3094   47.1995 H         1 L79         0.0525
     32 H4         10.4121   38.2176   43.6325 H         1 L79         0.0696
     33 H5         11.8469   38.5447   42.1741 H         1 L79         0.0520
     34 H6         10.7927   37.5987   41.0693 H         1 L79         0.0520
     35 H7         12.9010   36.4185   40.6657 H         1 L79         0.0714
     36 H8         14.2589   35.4750   42.7993 H         1 L79         0.0478
     37 H9          8.7561   39.0514   42.2026 H         1 L79         0.0958
     38 H10         4.5949   39.5572   40.1778 H         1 L79         0.0169
     39 H11         4.2219   39.6854   41.9303 H         1 L79         0.0169
     40 H12         7.3398   40.5949   42.7523 H         1 L79         0.0142
     41 H13         5.6999   40.1634   43.3447 H         1 L79         0.0142
     42 H14         5.8868   41.3039   41.9696 H         1 L79         0.0142
     43 H15         6.8614   38.9608   39.4201 H         1 L79         0.0142
     44 H16         7.8954   40.0879   40.3620 H         1 L79         0.0142
     45 H17         6.2675   40.6104   39.8108 H         1 L79         0.0142
     46 H18         3.0229   36.0639   42.7601 H         1 L79         0.0118
     47 H19         4.1273   37.0580   43.7694 H         1 L79         0.0118
     48 H20         4.4672   35.3120   43.5185 H         1 L79         0.0118
     49 H21         4.0100   37.4333   40.0802 H         1 L79         0.0147
     50 H22         3.1564   37.7797   41.6223 H         1 L79         0.0147
     51 H23         5.1817   34.5058   41.2249 H         1 L79         0.0118
     52 H24         5.0885   35.6670   39.8575 H         1 L79         0.0118
     53 H25         3.5981   35.2072   40.7485 H         1 L79         0.0118
     54 H26         6.6155   34.8112   42.7343 H         1 L79         0.0931
     55 H27         8.9388   35.0243   43.3028 H         1 L79         0.0845
@<TRIPOS>BOND
     1    1    2 2  
     2    1    5 1  
     3    2    3 1  
     4    2    6 1  
     5    3    4 1  
     6    4    5 2  
     7    4   14 1  
     8    5   11 1  
     9    6    7 2  
    10    7    8 1  
    11    8    9 ar 
    12    8   10 ar 
    13   11   12 1  
    14   11   15 1  
    15   12   13 1  
    16   13   14 2  
    17   15   16 ar 
    18   15   28 ar 
    19   16   17 ar 
    20   17   18 1  
    21   17   22 ar 
    22   18   19 1  
    23   18   20 1  
    24   18   21 1  
    25   19   25 1  
    26   22   23 1  
    27   22   27 ar 
    28   23   24 1  
    29   23   25 1  
    30   23   26 1  
    31   27   28 ar 
    32    1   29 1  
    33    6   30 1  
    34    7   31 1  
    35   11   32 1  
    36   12   33 1  
    37   12   34 1  
    38   13   35 1  
    39   14   36 1  
    40   16   37 1  
    41   19   38 1  
    42   19   39 1  
    43   20   40 1  
    44   20   41 1  
    45   20   42 1  
    46   21   43 1  
    47   21   44 1  
    48   21   45 1  
    49   24   46 1  
    50   24   47 1  
    51   24   48 1  
    52   25   49 1  
    53   25   50 1  
    54   26   51 1  
    55   26   52 1  
    56   26   53 1  
    57   27   54 1  
    58   28   55 1  
@<TRIPOS>SUBSTRUCTURE
     1 L79         1

