### 
### Created by X-TOOL on Mon Sep 10 21:12:51 2018
### 

@<TRIPOS>MOLECULE
1re1_ligand
   27    27     1     0     0
SMALL
GAST_HUCK


@<TRIPOS>ATOM
      1 C7         39.1260   92.6950   21.1940 C.ar      1 NA3        -0.0127
      2 C8         40.0710   93.4100   21.9020 C.ar      1 NA3         0.0465
      3 C9         40.3110   94.7460   21.6210 C.ar      1 NA3         0.0253
      4 N2         39.6650   95.3880   20.6690 N.ar      1 NA3        -0.2872
      5 C10        38.7390   94.6860   19.9690 C.ar      1 NA3         0.0341
      6 C6         38.4260   93.3370   20.1870 C.ar      1 NA3         0.0806
      7 BR1        41.0220   92.5010   23.2430 Br        1 NA3        -0.0389
      8 C5         37.2780   92.6690   19.4350 C.2       1 NA3         0.2140
      9 O4         36.7690   91.5970   19.7590 O.2       1 NA3        -0.3816
     10 N1         36.9000   93.3400   18.3470 N.am      1 NA3        -0.2781
     11 C3         35.7550   92.9370   17.5070 C.3       1 NA3         0.0760
     12 C2         34.9560   94.1610   17.0120 C.3       1 NA3         0.0254
     13 C4         36.0620   91.8800   16.4060 C.3       1 NA3         0.0686
     14 O3         34.8670   91.5300   15.7050 O.3       1 NA3        -0.3926
     15 C1         34.3700   94.9510   18.1600 C.2       1 NA3         0.0371
     16 O2         33.9470   96.1170   17.9900 O.co2     1 NA3        -0.5689
     17 O1         34.2880   94.4020   19.2770 O.co2     1 NA3        -0.5689
     18 H1         38.9360   91.6524   21.4219 H         1 NA3         0.0816
     19 H2         41.0538   95.2795   22.2030 H         1 NA3         0.0885
     20 H3         38.2020   95.2060   19.1840 H         1 NA3         0.0901
     21 H4         37.4170   94.1557   18.0873 H         1 NA3         0.1852
     22 H5         35.0748   92.4153   18.1963 H         1 NA3         0.0597
     23 H6         34.1374   93.8137   16.3645 H         1 NA3         0.0454
     24 H7         35.6271   94.8149   16.4358 H         1 NA3         0.0454
     25 H8         36.4837   90.9792   16.8758 H         1 NA3         0.0581
     26 H9         36.7900   92.2979   15.6952 H         1 NA3         0.0581
     27 H10        35.0701   90.8852   15.0375 H         1 NA3         0.2095
@<TRIPOS>BOND
     1    1    2 ar 
     2    1    6 ar 
     3    2    3 ar 
     4    2    7 1  
     5    3    4 ar 
     6    4    5 ar 
     7    5    6 ar 
     8    6    8 1  
     9    8    9 2  
    10    8   10 am 
    11   10   11 1  
    12   11   12 1  
    13   11   13 1  
    14   12   15 1  
    15   13   14 1  
    16   15   16 ar 
    17   15   17 ar 
    18    1   18 1  
    19    3   19 1  
    20    5   20 1  
    21   10   21 1  
    22   11   22 1  
    23   12   23 1  
    24   12   24 1  
    25   13   25 1  
    26   13   26 1  
    27   14   27 1  
@<TRIPOS>SUBSTRUCTURE
     1 NA3         1

