### 
### Created by X-TOOL on Mon Sep 10 21:12:51 2018
### 

@<TRIPOS>MOLECULE
1re8_ligand
   62    65     1     0     0
SMALL
GAST_HUCK


@<TRIPOS>ATOM
      1 O1         17.2500   39.0190   20.1380 O.3       1 BD2        -0.3296
      2 C1         15.9620   39.3050   19.9190 C.ar      1 BD2         0.0931
      3 C2         15.5600   40.6340   19.7310 C.ar      1 BD2        -0.0271
      4 C3         14.2200   40.9310   19.5050 C.ar      1 BD2        -0.0504
      5 C4         13.2670   39.8980   19.4620 C.ar      1 BD2         0.0385
      6 C5         13.6730   38.5730   19.6400 C.ar      1 BD2        -0.0504
      7 C6         15.0220   38.2770   19.8690 C.ar      1 BD2        -0.0271
      8 C7         11.9300   40.1900   19.2320 C.2       1 BD2         0.1973
      9 O7         11.5140   41.3510   19.4060 O.2       1 BD2        -0.3898
     10 N8         11.0860   39.2270   18.8290 N.am      1 BD2        -0.2767
     11 C8          9.6810   39.2580   19.2150 C.3       1 BD2         0.1111
     12 C9          8.6060   39.5970   18.1760 C.3       1 BD2         0.1144
     13 C10         7.3800   38.7050   18.0430 C.3       1 BD2        -0.0151
     14 C11         6.3740   39.0360   19.1410 C.3       1 BD2        -0.0098
     15 C12         6.9100   38.6030   20.5000 C.3       1 BD2        -0.0335
     16 N13         7.9670   39.5040   20.9410 N.4       1 BD2         0.2287
     17 C14         9.2740   38.9430   20.6460 C.3       1 BD2        -0.0074
     18 O9          8.7430   40.7760   17.3730 O.3       1 BD2        -0.2712
     19 C15         8.2870   40.5830   16.0360 C.2       1 BD2         0.2664
     20 O15         8.5550   39.5230   15.4270 O.2       1 BD2        -0.3550
     21 C16         7.5560   41.5820   15.4020 C.ar      1 BD2         0.0661
     22 C17         7.5900   41.6930   14.0050 C.ar      1 BD2        -0.0354
     23 C18         6.8540   42.6900   13.3670 C.ar      1 BD2        -0.0382
     24 C19         6.0850   43.6000   14.1060 C.ar      1 BD2         0.0360
     25 C20         6.0590   43.4990   15.5040 C.ar      1 BD2        -0.0382
     26 C21         6.7910   42.4860   16.1490 C.ar      1 BD2        -0.0354
     27 C22         5.3620   44.5860   13.4360 C.2       1 BD2         0.1576
     28 O22         4.9900   44.3650   12.2710 O.2       1 BD2        -0.3722
     29 C23         5.0260   45.8130   14.0180 C.ar      1 BD2         0.0633
     30 C24         3.6740   46.1440   14.1670 C.ar      1 BD2        -0.0516
     31 C25         3.3040   47.3720   14.7390 C.ar      1 BD2        -0.0669
     32 C26         4.2900   48.2590   15.1650 C.ar      1 BD2        -0.0659
     33 C27         5.6400   47.9370   15.0230 C.ar      1 BD2        -0.0268
     34 C28         6.0170   46.7200   14.4480 C.ar      1 BD2         0.1081
     35 O28         7.3150   46.4200   14.3260 O.3       1 BD2        -0.3274
     36 H1         17.7687   39.3134   19.3986 H         1 BD2         0.2501
     37 H2         16.2938   41.4313   19.7617 H         1 BD2         0.0556
     38 H3         13.9101   41.9599   19.3619 H         1 BD2         0.0642
     39 H4         12.9424   37.7731   19.6007 H         1 BD2         0.0642
     40 H5         15.3355   37.2486   20.0074 H         1 BD2         0.0556
     41 H6         11.4252   38.4798   18.2574 H         1 BD2         0.1848
     42 H7          9.7733   40.3234   19.4724 H         1 BD2         0.0638
     43 H8          9.1336   39.0039   17.4145 H         1 BD2         0.0673
     44 H9          7.6841   37.6517   18.1328 H         1 BD2         0.0296
     45 H10         6.9142   38.8697   17.0602 H         1 BD2         0.0296
     46 H11         5.4301   38.5086   18.9389 H         1 BD2         0.0318
     47 H12         6.1929   40.1209   19.1517 H         1 BD2         0.0318
     48 H13         7.3131   37.5825   20.4220 H         1 BD2         0.0814
     49 H14         6.0910   38.6187   21.2342 H         1 BD2         0.0814
     50 H15         7.8855   39.6486   21.9352 H         1 BD2         0.2014
     51 H16         7.8702   40.3867   20.4640 H         1 BD2         0.2014
     52 H17        10.0157   39.3723   21.3357 H         1 BD2         0.0837
     53 H18         9.2375   37.8518   20.7796 H         1 BD2         0.0837
     54 H19         8.1887   41.0035   13.4209 H         1 BD2         0.0682
     55 H20         6.8765   42.7627   12.2857 H         1 BD2         0.0679
     56 H21         5.4749   44.2014   16.0876 H         1 BD2         0.0679
     57 H22         6.7628   42.4047   17.2296 H         1 BD2         0.0682
     58 H23         2.9092   45.4492   13.8393 H         1 BD2         0.0641
     59 H24         2.2564   47.6284   14.8485 H         1 BD2         0.0537
     60 H25         4.0064   49.2059   15.6099 H         1 BD2         0.0627
     61 H26         6.3995   48.6333   15.3599 H         1 BD2         0.0556
     62 H27         7.7180   46.4065   15.1862 H         1 BD2         0.2510
@<TRIPOS>BOND
     1    1    2 1  
     2    2    3 ar 
     3    2    7 ar 
     4    3    4 ar 
     5    4    5 ar 
     6    5    6 ar 
     7    5    8 1  
     8    6    7 ar 
     9    8    9 2  
    10    8   10 am 
    11   10   11 1  
    12   11   12 1  
    13   11   17 1  
    14   12   13 1  
    15   12   18 1  
    16   13   14 1  
    17   14   15 1  
    18   15   16 1  
    19   16   17 1  
    20   18   19 1  
    21   19   20 2  
    22   19   21 1  
    23   21   22 ar 
    24   21   26 ar 
    25   22   23 ar 
    26   23   24 ar 
    27   24   25 ar 
    28   24   27 1  
    29   25   26 ar 
    30   27   28 2  
    31   27   29 1  
    32   29   30 ar 
    33   29   34 ar 
    34   30   31 ar 
    35   31   32 ar 
    36   32   33 ar 
    37   33   34 ar 
    38   34   35 1  
    39    1   36 1  
    40    3   37 1  
    41    4   38 1  
    42    6   39 1  
    43    7   40 1  
    44   10   41 1  
    45   11   42 1  
    46   12   43 1  
    47   13   44 1  
    48   13   45 1  
    49   14   46 1  
    50   14   47 1  
    51   15   48 1  
    52   15   49 1  
    53   16   50 1  
    54   16   51 1  
    55   17   52 1  
    56   17   53 1  
    57   22   54 1  
    58   23   55 1  
    59   25   56 1  
    60   26   57 1  
    61   30   58 1  
    62   31   59 1  
    63   32   60 1  
    64   33   61 1  
    65   35   62 1  
@<TRIPOS>SUBSTRUCTURE
     1 BD2         1

