### 
### Created by X-TOOL on Mon Sep 10 21:12:52 2018
### 

@<TRIPOS>MOLECULE
1rek_ligand
   78    81     1     0     0
SMALL
GAST_HUCK


@<TRIPOS>ATOM
      1 O1         17.4550   38.8030   20.0470 O.3       1 B8L        -0.3332
      2 C1         16.0770   39.1820   19.8310 C.ar      1 B8L         0.0951
      3 C2         15.7230   40.5320   19.8190 C.ar      1 B8L        -0.0334
      4 C3         14.3960   40.9000   19.5690 C.ar      1 B8L        -0.0573
      5 C4         13.3930   39.9380   19.3460 C.ar      1 B8L         0.0317
      6 C5         13.7820   38.5800   19.3750 C.ar      1 B8L        -0.0486
      7 C6         15.1130   38.1930   19.6170 C.ar      1 B8L        -0.0051
      8 C7         12.0380   40.3230   19.3110 C.2       1 B8L         0.1956
      9 O7         11.6680   41.5020   19.3660 O.2       1 B8L        -0.3898
     10 N8         11.1770   39.3140   19.1060 N.am      1 B8L        -0.2768
     11 C8          9.7340   39.4380   19.2820 C.3       1 B8L         0.1111
     12 C9          8.9540   39.1420   17.9680 C.3       1 B8L         0.1144
     13 C10         7.5320   38.5560   18.0870 C.3       1 B8L        -0.0151
     14 C11         6.6600   39.3150   19.0750 C.3       1 B8L        -0.0098
     15 C12         6.8090   38.7520   20.4870 C.3       1 B8L        -0.0335
     16 N13         8.1220   39.0270   21.0620 N.4       1 B8L         0.2287
     17 O9          8.9290   40.4050   17.2870 O.3       1 B8L        -0.2712
     18 C14         9.3870   38.5830   20.4960 C.3       1 B8L        -0.0074
     19 C15         8.5220   40.3350   15.8860 C.2       1 B8L         0.2664
     20 O15         8.6230   39.2810   15.2610 O.2       1 B8L        -0.3550
     21 C16         7.7830   41.3680   15.3100 C.ar      1 B8L         0.0661
     22 C17         7.8520   41.6350   13.9320 C.ar      1 B8L        -0.0354
     23 C18         7.1140   42.6800   13.3620 C.ar      1 B8L        -0.0382
     24 C19         6.3030   43.4920   14.1580 C.ar      1 B8L         0.0358
     25 C20         6.2370   43.2300   15.5290 C.ar      1 B8L        -0.0382
     26 C21         6.9760   42.1860   16.0990 C.ar      1 B8L        -0.0354
     27 C22         5.5260   44.5080   13.5760 C.2       1 B8L         0.1552
     28 O22         4.9230   44.2530   12.5260 O.2       1 B8L        -0.3723
     29 C23         5.3570   45.7720   14.1560 C.ar      1 B8L         0.0549
     30 C24         4.0420   46.2140   14.2960 C.ar      1 B8L        -0.0230
     31 C26         3.7410   47.5190   14.7160 C.ar      1 B8L         0.0850
     32 O26         2.3560   47.9510   14.8370 O.3       1 B8L        -0.3273
     33 C27         4.7600   48.4250   14.9870 C.ar      1 B8L        -0.0364
     34 C28         6.0790   48.0090   14.8580 C.ar      1 B8L        -0.0347
     35 C29         6.3720   46.7090   14.4220 C.ar      1 B8L         0.0970
     36 O29         7.7500   46.3220   14.2310 O.3       1 B8L        -0.3345
     37 C66        15.5120   36.7540   19.6510 C.3       1 B8L        -0.0112
     38 C71        15.1790   36.0260   18.3340 C.3       1 B8L        -0.0450
     39 C72        14.9010   36.0550   20.8600 C.3       1 B8L        -0.0541
     40 C81        16.1880   36.3800   17.2120 C.3       1 B8L        -0.0635
     41 C30         1.2890   47.0600   15.0440 C.3       1 B8L         0.0570
     42 H1         17.9966   39.1789   19.3630 H         1 B8L         0.2477
     43 H2         16.4731   41.2927   20.0026 H         1 B8L         0.0536
     44 H3         14.1342   41.9517   19.5466 H         1 B8L         0.0586
     45 H4         13.0336   37.8143   19.2060 H         1 B8L         0.0576
     46 H5         11.5442   38.4299   18.8171 H         1 B8L         0.1848
     47 H6          9.5074   40.4824   19.5423 H         1 B8L         0.0638
     48 H7          9.5427   38.4221   17.3804 H         1 B8L         0.0673
     49 H8          7.6100   37.5102   18.4190 H         1 B8L         0.0296
     50 H9          7.0536   38.5918   17.0971 H         1 B8L         0.0296
     51 H10         5.6082   39.2308   18.7641 H         1 B8L         0.0318
     52 H11         6.9581   40.3738   19.0774 H         1 B8L         0.0318
     53 H12         6.6612   37.6626   20.4500 H         1 B8L         0.0814
     54 H13         6.0402   39.2047   21.1304 H         1 B8L         0.0814
     55 H14         8.0941   38.6429   21.9935 H         1 B8L         0.2014
     56 H15         8.1882   40.0314   21.1146 H         1 B8L         0.2014
     57 H16        10.1804   38.6813   21.2516 H         1 B8L         0.0837
     58 H17         9.3011   37.5301   20.1894 H         1 B8L         0.0837
     59 H18         8.4860   41.0229   13.3007 H         1 B8L         0.0682
     60 H19         7.1727   42.8600   12.2947 H         1 B8L         0.0679
     61 H20         5.6047   43.8437   16.1604 H         1 B8L         0.0679
     62 H21         6.9197   42.0118   17.1674 H         1 B8L         0.0682
     63 H22         3.2299   45.5310   14.0744 H         1 B8L         0.0563
     64 H23         4.5292   49.4388   15.2937 H         1 B8L         0.0557
     65 H24         6.8858   48.6928   15.0956 H         1 B8L         0.0531
     66 H25         8.2185   46.4069   15.0531 H         1 B8L         0.2474
     67 H26        16.6050   36.7203   19.7705 H         1 B8L         0.0436
     68 H27        14.1692   36.3185   18.0105 H         1 B8L         0.0285
     69 H28        15.2077   34.9405   18.5096 H         1 B8L         0.0285
     70 H29        15.1636   36.6073   21.7743 H         1 B8L         0.0252
     71 H30        15.2917   35.0289   20.9265 H         1 B8L         0.0252
     72 H31        13.8068   36.0244   20.7517 H         1 B8L         0.0252
     73 H32        15.9165   35.8421   16.2917 H         1 B8L         0.0231
     74 H33        17.2010   36.0855   17.5235 H         1 B8L         0.0231
     75 H34        16.1625   37.4636   17.0244 H         1 B8L         0.0231
     76 H35         0.3463   47.6239   15.1013 H         1 B8L         0.0573
     77 H36         1.4461   46.5120   15.9847 H         1 B8L         0.0573
     78 H37         1.2394   46.3468   14.2080 H         1 B8L         0.0573
@<TRIPOS>BOND
     1    1    2 1  
     2    2    3 ar 
     3    2    7 ar 
     4    3    4 ar 
     5    4    5 ar 
     6    5    6 ar 
     7    5    8 1  
     8    6    7 ar 
     9    7   37 1  
    10    8    9 2  
    11    8   10 am 
    12   10   11 1  
    13   11   12 1  
    14   11   18 1  
    15   12   13 1  
    16   12   17 1  
    17   13   14 1  
    18   14   15 1  
    19   15   16 1  
    20   16   18 1  
    21   17   19 1  
    22   19   20 2  
    23   19   21 1  
    24   21   22 ar 
    25   21   26 ar 
    26   22   23 ar 
    27   23   24 ar 
    28   24   25 ar 
    29   24   27 1  
    30   25   26 ar 
    31   27   28 2  
    32   27   29 1  
    33   29   30 ar 
    34   29   35 ar 
    35   30   31 ar 
    36   31   32 1  
    37   31   33 ar 
    38   32   41 1  
    39   33   34 ar 
    40   34   35 ar 
    41   35   36 1  
    42   37   38 1  
    43   37   39 1  
    44   38   40 1  
    45    1   42 1  
    46    3   43 1  
    47    4   44 1  
    48    6   45 1  
    49   10   46 1  
    50   11   47 1  
    51   12   48 1  
    52   13   49 1  
    53   13   50 1  
    54   14   51 1  
    55   14   52 1  
    56   15   53 1  
    57   15   54 1  
    58   16   55 1  
    59   16   56 1  
    60   18   57 1  
    61   18   58 1  
    62   22   59 1  
    63   23   60 1  
    64   25   61 1  
    65   26   62 1  
    66   30   63 1  
    67   33   64 1  
    68   34   65 1  
    69   36   66 1  
    70   37   67 1  
    71   38   68 1  
    72   38   69 1  
    73   39   70 1  
    74   39   71 1  
    75   39   72 1  
    76   40   73 1  
    77   40   74 1  
    78   40   75 1  
    79   41   76 1  
    80   41   77 1  
    81   41   78 1  
@<TRIPOS>SUBSTRUCTURE
     1 B8L         1

