### 
### Created by X-TOOL on Mon Sep 10 21:12:45 2018
### 

@<TRIPOS>MOLECULE
1rev_ligand
   42    44     1     0     0
SMALL
GAST_HUCK


@<TRIPOS>ATOM
      1 N1          0.8980  -37.3110   18.5140 N.am      1 TB9        -0.2340
      2 C1A         0.2840  -37.1300   19.7030 C.ar      1 TB9         0.0968
      3 C2          2.1420  -37.7570   18.7700 C.2       1 TB9         0.1796
      4 S2          3.3020  -38.0590   17.5780 S.2       1 TB9        -0.3154
      5 N3          2.3500  -37.8790   20.1140 N.am      1 TB9        -0.2153
      6 C3A         1.2110  -37.4930   20.7250 C.ar      1 TB9         0.1127
      7 C4          3.6220  -38.3840   20.6320 C.3       1 TB9         0.1012
      8 C5          3.5360  -38.9920   22.0390 C.3       1 TB9         0.0060
      9 N6          3.0190  -38.0210   23.0050 N.4       1 TB9         0.2552
     10 C7          1.5670  -38.1600   23.1250 C.3       1 TB9        -0.0025
     11 C7A         0.8230  -37.3720   22.0740 C.ar      1 TB9         0.0172
     12 C8         -0.4320  -36.8990   22.3890 C.ar      1 TB9        -0.0659
     13 C9         -1.3250  -36.5530   21.3970 C.ar      1 TB9         0.0084
     14 CL9        -2.8610  -36.0010   21.8380 Cl        1 TB9        -0.0882
     15 C10        -0.9800  -36.6610   20.0660 C.ar      1 TB9        -0.0414
     16 C11         2.7330  -40.2820   22.0090 C.3       1 TB9        -0.0190
     17 C12         3.7770  -36.8760   23.5370 C.3       1 TB9        -0.0236
     18 C13         3.0080  -36.1580   24.6020 C.2       1 TB9        -0.0650
     19 C14         3.4910  -35.2020   25.3750 C.2       1 TB9        -0.0823
     20 C15         2.6420  -34.5480   26.4230 C.3       1 TB9        -0.0404
     21 C16         4.8940  -34.7090   25.2550 C.3       1 TB9        -0.0404
     22 H1          0.5020  -37.1446   17.6109 H         1 TB9         0.2376
     23 H2          4.3377  -37.5492   20.6610 H         1 TB9         0.0666
     24 H3          3.9905  -39.1592   19.9440 H         1 TB9         0.0666
     25 H4          4.5579  -39.2499   22.3539 H         1 TB9         0.0876
     26 H5          3.2295  -38.5854   23.8132 H         1 TB9         0.2057
     27 H6          1.2590  -37.8019   24.1184 H         1 TB9         0.0950
     28 H7          1.3044  -39.2231   23.0208 H         1 TB9         0.0950
     29 H8         -0.7208  -36.7977   23.4289 H         1 TB9         0.0416
     30 H9         -1.6928  -36.3807   19.2989 H         1 TB9         0.0432
     31 H10         3.1686  -40.9678   21.2675 H         1 TB9         0.0285
     32 H11         1.6913  -40.0592   21.7349 H         1 TB9         0.0285
     33 H12         2.7580  -40.7527   23.0029 H         1 TB9         0.0285
     34 H13         3.9902  -36.1756   22.7160 H         1 TB9         0.0888
     35 H14         4.7233  -37.2404   23.9632 H         1 TB9         0.0888
     36 H15         1.9686  -36.4466   24.7512 H         1 TB9         0.0294
     37 H16         3.2332  -33.7845   26.9499 H         1 TB9         0.0375
     38 H17         2.2981  -35.3061   27.1420 H         1 TB9         0.0375
     39 H18         1.7717  -34.0733   25.9462 H         1 TB9         0.0375
     40 H19         5.4104  -35.2632   24.4574 H         1 TB9         0.0375
     41 H20         5.4199  -34.8638   26.2086 H         1 TB9         0.0375
     42 H21         4.8862  -33.6366   25.0104 H         1 TB9         0.0375
@<TRIPOS>BOND
     1    1    2 1  
     2    1    3 am 
     3    2    6 ar 
     4    2   15 ar 
     5    3    4 2  
     6    3    5 am 
     7    5    6 1  
     8    5    7 1  
     9    6   11 ar 
    10    7    8 1  
    11    8    9 1  
    12    8   16 1  
    13    9   10 1  
    14    9   17 1  
    15   10   11 1  
    16   11   12 ar 
    17   12   13 ar 
    18   13   14 1  
    19   13   15 ar 
    20   17   18 1  
    21   18   19 2  
    22   19   20 1  
    23   19   21 1  
    24    1   22 1  
    25    7   23 1  
    26    7   24 1  
    27    8   25 1  
    28    9   26 1  
    29   10   27 1  
    30   10   28 1  
    31   12   29 1  
    32   15   30 1  
    33   16   31 1  
    34   16   32 1  
    35   16   33 1  
    36   17   34 1  
    37   17   35 1  
    38   18   36 1  
    39   20   37 1  
    40   20   38 1  
    41   20   39 1  
    42   21   40 1  
    43   21   41 1  
    44   21   42 1  
@<TRIPOS>SUBSTRUCTURE
     1 TB9         1

