### 
### Created by X-TOOL on Sun Sep  9 21:50:08 2018
### 

@<TRIPOS>MOLECULE
1rhj_ligand
   88    89     1     0     0
SMALL
GAST_HUCK


@<TRIPOS>ATOM
      1 C1        -76.3660   37.3190   79.5680 C.3       1 NON        -0.0653
      2 C2        -77.8220   36.9900   79.9480 C.3       1 NON        -0.0559
      3 C3        -78.5830   36.2350   78.8410 C.3       1 NON        -0.0531
      4 C4        -79.7460   35.3980   79.4070 C.3       1 NON        -0.0483
      5 C5        -79.8080   33.9890   78.7840 C.3       1 NON        -0.0125
      6 C6        -80.4810   32.9510   79.7320 C.3       1 NON        -0.0321
      7 N1        -81.6440   32.1230   79.2760 N.4       1 NON         0.2350
      8 C7        -81.2650   31.2510   78.1230 C.3       1 NON        -0.0430
      9 C8        -82.8560   32.9410   78.9310 C.3       1 NON        -0.0032
     10 C9        -84.2740   32.4330   79.3750 C.3       1 NON         0.1190
     11 O1        -84.1730   31.3950   78.7340 O.3       1 NON        -0.3841
     12 C10       -84.5520   32.4560   80.8810 C.3       1 NON         0.0843
     13 N2        -84.8690   33.8330   81.2520 N.am      1 NON        -0.2765
     14 C11       -85.7800   31.5450   81.2190 C.3       1 NON         0.0259
     15 C12       -86.0070   31.1610   82.6880 C.2       1 NON         0.0371
     16 O2        -87.2050   31.1050   83.0980 O.co2     1 NON        -0.5689
     17 O3        -85.0100   30.8910   83.4120 O.co2     1 NON        -0.5689
     18 C13       -84.1700   34.5540   82.1450 C.2       1 NON         0.2180
     19 C14       -84.6060   36.0280   82.3160 C.3       1 NON         0.1888
     20 O4        -83.2400   34.1000   82.8080 O.2       1 NON        -0.3929
     21 C15       -84.0840   36.8430   81.1040 C.3       1 NON        -0.0006
     22 C16       -84.8500   38.1590   80.8700 C.3       1 NON        -0.0597
     23 N3        -84.2290   36.7310   83.6010 N.am      1 NON        -0.1222
     24 C18       -84.5990   37.4160   85.9360 C.2       1 NON         0.2210
     25 N4        -83.3660   38.1290   85.9050 N.2       1 NON        -0.2915
     26 C19       -82.5310   38.1770   84.7530 C.2       1 NON        -0.0020
     27 C24       -82.9300   37.5030   83.6430 C.2       1 NON         0.1323
     28 C17       -85.0770   36.6590   84.6890 C.2       1 NON         0.3431
     29 O5        -86.1500   36.0580   84.7260 O.2       1 NON        -0.3357
     30 C20       -81.2700   39.0450   84.8490 C.3       1 NON        -0.0968
     31 C23       -80.3210   38.8120   83.6400 C.3       1 NON        -0.1220
     32 C21       -80.5010   38.7270   86.1480 C.3       1 NON        -0.1220
     33 C22       -81.6830   40.5300   84.8730 C.3       1 NON        -0.1220
     34 N5        -85.2860   37.4620   87.0990 N.pl3     1 NON        -0.2733
     35 C25       -85.1200   38.4330   88.1820 C.3       1 NON         0.0771
     36 C26       -85.7240   39.7790   87.7590 C.2       1 NON         0.0897
     37 C27       -87.1370   40.2250   87.5540 C.2       1 NON         0.0659
     38 N7        -87.1010   41.5030   87.1880 N.2       1 NON        -0.1142
     39 O6        -85.7430   41.9140   87.1440 O.3       1 NON        -0.0799
     40 N6        -84.9350   40.8190   87.5030 N.2       1 NON        -0.1119
     41 C28       -88.4450   39.4560   87.7010 C.3       1 NON        -0.0211
     42 H1        -75.8827   37.8552   80.3980 H         1 NON         0.0230
     43 H2        -76.3558   37.9511   78.6678 H         1 NON         0.0230
     44 H3        -75.8197   36.3857   79.3669 H         1 NON         0.0230
     45 H4        -78.3506   37.9321   80.1553 H         1 NON         0.0263
     46 H5        -77.8144   36.3667   80.8543 H         1 NON         0.0263
     47 H6        -77.8822   35.5641   78.3226 H         1 NON         0.0265
     48 H7        -78.9873   36.9665   78.1258 H         1 NON         0.0265
     49 H8        -80.6918   35.9193   79.1982 H         1 NON         0.0267
     50 H9        -79.6143   35.2987   80.4946 H         1 NON         0.0267
     51 H10       -78.7835   33.6544   78.5638 H         1 NON         0.0317
     52 H11       -80.3857   34.0408   77.8494 H         1 NON         0.0317
     53 H12       -80.8240   33.5111   80.6144 H         1 NON         0.0814
     54 H13       -79.6928   32.2440   80.0301 H         1 NON         0.0814
     55 H14       -81.8981   31.5216   80.0440 H         1 NON         0.2031
     56 H15       -82.1364   30.6566   77.8109 H         1 NON         0.0778
     57 H16       -80.4504   30.5765   78.4256 H         1 NON         0.0778
     58 H17       -80.9294   31.8780   77.2838 H         1 NON         0.0778
     59 H18       -82.8776   33.0375   77.8355 H         1 NON         0.0841
     60 H19       -82.7137   33.9333   79.3838 H         1 NON         0.0841
     61 H20       -85.0654   33.0547   78.9310 H         1 NON         0.0671
     62 H21       -84.9610   30.8765   78.8468 H         1 NON         0.2101
     63 H22       -83.6667   32.1066   81.4325 H         1 NON         0.0602
     64 H23       -85.6562   34.2666   80.8135 H         1 NON         0.1857
     65 H24       -85.6609   30.6106   80.6509 H         1 NON         0.0454
     66 H25       -86.6827   32.0710   80.8747 H         1 NON         0.0454
     67 H26       -85.7053   36.0309   82.2780 H         1 NON         0.0985
     68 H27       -84.1765   36.2215   80.2011 H         1 NON         0.0324
     69 H28       -83.0246   37.0833   81.2768 H         1 NON         0.0324
     70 H29       -84.4262   38.6800   79.9988 H         1 NON         0.0232
     71 H30       -84.7593   38.7993   81.7598 H         1 NON         0.0232
     72 H31       -85.9113   37.9375   80.6842 H         1 NON         0.0232
     73 H32       -82.2957   37.5193   82.7579 H         1 NON         0.1803
     74 H33       -79.4310   39.4499   83.7443 H         1 NON         0.0017
     75 H34       -80.8463   39.0652   82.7073 H         1 NON         0.0017
     76 H35       -80.0141   37.7560   83.6129 H         1 NON         0.0017
     77 H36       -81.1608   38.8876   87.0133 H         1 NON         0.0017
     78 H37       -79.6254   39.3881   86.2270 H         1 NON         0.0017
     79 H38       -80.1685   37.6786   86.1300 H         1 NON         0.0017
     80 H39       -82.2332   40.7725   83.9519 H         1 NON         0.0017
     81 H40       -80.7836   41.1597   84.9394 H         1 NON         0.0017
     82 H41       -82.3270   40.7175   85.7448 H         1 NON         0.0017
     83 H42       -86.0033   36.7360   87.2383 H         1 NON         0.1940
     84 H43       -84.0491   38.5630   88.3970 H         1 NON         0.0678
     85 H44       -85.6334   38.0679   89.0837 H         1 NON         0.0678
     86 H45       -89.2894   40.1204   87.4651 H         1 NON         0.0373
     87 H46       -88.5423   39.0922   88.7345 H         1 NON         0.0373
     88 H47       -88.4472   38.6006   87.0094 H         1 NON         0.0373
@<TRIPOS>BOND
     1    2    1 1  
     2    3    2 1  
     3    4    3 1  
     4    5    4 1  
     5    6    5 1  
     6    7    6 1  
     7    7    8 1  
     8    9    7 1  
     9   10    9 1  
    10   10   11 1  
    11   12   10 1  
    12   13   12 1  
    13   12   14 1  
    14   18   13 am 
    15   14   15 1  
    16   15   16 ar 
    17   15   17 ar 
    18   19   18 1  
    19   18   20 2  
    20   19   21 1  
    21   23   19 1  
    22   21   22 1  
    23   23   27 1  
    24   28   23 am 
    25   24   25 2  
    26   24   28 1  
    27   24   34 1  
    28   25   26 1  
    29   26   27 2  
    30   26   30 1  
    31   28   29 2  
    32   30   31 1  
    33   30   32 1  
    34   30   33 1  
    35   34   35 1  
    36   35   36 1  
    37   36   37 1  
    38   36   40 2  
    39   37   38 2  
    40   37   41 1  
    41   38   39 1  
    42   39   40 1  
    43    1   42 1  
    44    1   43 1  
    45    1   44 1  
    46    2   45 1  
    47    2   46 1  
    48    3   47 1  
    49    3   48 1  
    50    4   49 1  
    51    4   50 1  
    52    5   51 1  
    53    5   52 1  
    54    6   53 1  
    55    6   54 1  
    56    7   55 1  
    57    8   56 1  
    58    8   57 1  
    59    8   58 1  
    60    9   59 1  
    61    9   60 1  
    62   10   61 1  
    63   11   62 1  
    64   12   63 1  
    65   13   64 1  
    66   14   65 1  
    67   14   66 1  
    68   19   67 1  
    69   21   68 1  
    70   21   69 1  
    71   22   70 1  
    72   22   71 1  
    73   22   72 1  
    74   27   73 1  
    75   31   74 1  
    76   31   75 1  
    77   31   76 1  
    78   32   77 1  
    79   32   78 1  
    80   32   79 1  
    81   33   80 1  
    82   33   81 1  
    83   33   82 1  
    84   34   83 1  
    85   35   84 1  
    86   35   85 1  
    87   41   86 1  
    88   41   87 1  
    89   41   88 1  
@<TRIPOS>SUBSTRUCTURE
     1 NON         1

