### 
### Created by X-TOOL on Mon Sep 10 21:12:51 2018
### 

@<TRIPOS>MOLECULE
1rhm_ligand
   39    40     1     0     0
SMALL
GAST_HUCK


@<TRIPOS>ATOM
      1 C7        -44.2300   38.5980   90.0000 C.ar      1 NA4        -0.0149
      2 C8        -44.2130   39.4770   91.0470 C.ar      1 NA4         0.0162
      3 C9        -45.3710   39.7180   91.7550 C.ar      1 NA4         0.0232
      4 N2        -46.5280   39.1320   91.4680 N.ar      1 NA4        -0.2900
      5 C10       -46.5380   38.2710   90.4390 C.ar      1 NA4         0.0308
      6 C6        -45.4200   37.9600   89.6710 C.ar      1 NA4         0.0779
      7 C5        -45.4580   36.8850   88.6230 C.2       1 NA4         0.2132
      8 O4        -44.4380   36.4160   88.1170 O.2       1 NA4        -0.3816
      9 N1        -46.6910   36.5090   88.2860 N.am      1 NA4        -0.2782
     10 C3        -46.9760   35.4450   87.3330 C.3       1 NA4         0.0760
     11 C2        -48.1330   34.5600   87.8220 C.3       1 NA4         0.0254
     12 C4        -47.0570   35.8550   85.8100 C.3       1 NA4         0.0686
     13 O3        -47.0660   34.6830   84.9760 O.3       1 NA4        -0.3926
     14 C1        -47.8760   33.9770   89.2150 C.2       1 NA4         0.0371
     15 O2        -48.8260   33.5150   89.8880 O.co2     1 NA4        -0.5689
     16 O1        -46.7120   33.9510   89.6400 O.co2     1 NA4        -0.5689
     17 C15       -42.1310   42.4560   91.8260 C.ar      1 NA4        -0.0464
     18 C16       -43.2250   41.6520   91.5830 C.ar      1 NA4        -0.0490
     19 C11       -43.0400   40.3440   91.2110 C.ar      1 NA4        -0.0074
     20 C12       -41.7650   39.8270   91.0750 C.ar      1 NA4        -0.0490
     21 C13       -40.6690   40.6280   91.3180 C.ar      1 NA4        -0.0464
     22 C14       -40.8560   41.9470   91.6920 C.ar      1 NA4         0.0107
     23 C17       -39.7560   42.7850   91.9310 C.2       1 NA4         0.0632
     24 O5        -38.6160   42.2920   91.7780 O.co2     1 NA4        -0.5606
     25 O6        -39.9900   43.9690   92.2780 O.co2     1 NA4        -0.5606
     26 H1        -43.3269   38.4012   89.4337 H         1 NA4         0.0795
     27 H2        -45.3358   40.4169   92.5829 H         1 NA4         0.0864
     28 H3        -47.4757   37.7874   90.1903 H         1 NA4         0.0873
     29 H4        -47.4625   36.9830   88.7104 H         1 NA4         0.1852
     30 H5        -46.0894   34.7955   87.3787 H         1 NA4         0.0597
     31 H6        -48.2677   33.7309   87.1118 H         1 NA4         0.0454
     32 H7        -49.0505   35.1658   87.8568 H         1 NA4         0.0454
     33 H8        -46.1851   36.4751   85.5545 H         1 NA4         0.0581
     34 H9        -47.9789   36.4297   85.6377 H         1 NA4         0.0581
     35 H10       -47.8195   34.1467   85.1934 H         1 NA4         0.2095
     36 H11       -42.2733   43.4889   92.1226 H         1 NA4         0.0652
     37 H12       -44.2274   42.0518   91.6855 H         1 NA4         0.0637
     38 H13       -41.6270   38.7937   90.7778 H         1 NA4         0.0637
     39 H14       -39.6671   40.2267   91.2166 H         1 NA4         0.0652
@<TRIPOS>BOND
     1    2    1 ar 
     2    1    6 ar 
     3    2    3 ar 
     4   19    2 1  
     5    3    4 ar 
     6    4    5 ar 
     7    6    5 ar 
     8    6    7 1  
     9    7    8 2  
    10    7    9 am 
    11    9   10 1  
    12   10   11 1  
    13   10   12 1  
    14   11   14 1  
    15   12   13 1  
    16   14   15 ar 
    17   14   16 ar 
    18   18   17 ar 
    19   17   22 ar 
    20   18   19 ar 
    21   19   20 ar 
    22   20   21 ar 
    23   21   22 ar 
    24   22   23 1  
    25   23   24 ar 
    26   23   25 ar 
    27    1   26 1  
    28    3   27 1  
    29    5   28 1  
    30    9   29 1  
    31   10   30 1  
    32   11   31 1  
    33   11   32 1  
    34   12   33 1  
    35   12   34 1  
    36   13   35 1  
    37   17   36 1  
    38   18   37 1  
    39   20   38 1  
    40   21   39 1  
@<TRIPOS>SUBSTRUCTURE
     1 NA4         1

