### 
### Created by X-TOOL on Mon Sep 10 21:12:52 2018
### 

@<TRIPOS>MOLECULE
1rhq_ligand
   35    34     1     0     0
SMALL
GAST_HUCK


@<TRIPOS>ATOM
      1 C          50.0410   29.2620   95.7490 C.2       1 0ZZ         0.1751
      2 O          50.9980   28.7110   96.2680 O.2       1 0ZZ        -0.3972
      3 CH3        49.7010   30.6990   96.1230 C.3       1 0ZZ         0.0258
      4 N          49.2650   28.6590   94.8450 N.am      1 0ZZ        -0.2656
      5 CA         49.4730   27.2670   94.4230 C.3       1 0ZZ         0.1332
      6 C          49.9000   27.0700   92.9560 C.2       1 0ZZ         0.2043
      7 O          49.7400   27.9660   92.1180 O.2       1 0ZZ        -0.3944
      8 CB         48.1880   26.4470   94.6150 C.3       1 0ZZ        -0.0063
      9 CG1        47.8250   26.3740   96.0680 C.3       1 0ZZ        -0.0584
     10 CG2        47.0640   27.0760   93.8160 C.3       1 0ZZ        -0.0584
     11 N          50.4320   25.8820   92.6600 N.am      1 0ZZ        -0.2634
     12 CA         50.8500   25.5250   91.3040 C.3       1 0ZZ         0.1241
     13 C          49.8620   24.5120   90.6770 C.2       1 0ZZ         0.1262
     14 O          50.4120   24.0590   89.4260 O.2       1 0ZZ        -0.3723
     15 CB         52.2580   24.9390   91.3230 C.3       1 0ZZ         0.0393
     16 CG         53.3190   26.0000   91.2880 C.2       1 0ZZ         0.0393
     17 OD1        53.8240   26.3050   90.2000 O.co2     1 0ZZ        -0.5688
     18 OD2        53.6430   26.5420   92.3470 O.co2     1 0ZZ        -0.5688
     19 H1         48.8145   31.0247   95.5591 H         1 0ZZ         0.0467
     20 H2         50.5514   31.3525   95.8786 H         1 0ZZ         0.0467
     21 H3         49.4915   30.7575   97.2013 H         1 0ZZ         0.0467
     22 H4         48.5115   29.1759   94.4386 H         1 0ZZ         0.1883
     23 H5         50.2629   26.8489   95.0642 H         1 0ZZ         0.0802
     24 H6         48.3592   25.4258   94.2439 H         1 0ZZ         0.0343
     25 H7         46.9041   25.7842   96.1867 H         1 0ZZ         0.0234
     26 H8         47.6623   27.3900   96.4568 H         1 0ZZ         0.0234
     27 H9         48.6422   25.8942   96.6265 H         1 0ZZ         0.0234
     28 H10        47.3491   27.1205   92.7545 H         1 0ZZ         0.0234
     29 H11        46.8748   28.0938   94.1878 H         1 0ZZ         0.0234
     30 H12        46.1525   26.4702   93.9257 H         1 0ZZ         0.0234
     31 H13        50.5492   25.2111   93.3922 H         1 0ZZ         0.1886
     32 H14        50.8559   26.4363   90.6880 H         1 0ZZ         0.0809
     33 H15        48.9133   24.1960   91.1083 H         1 0ZZ         0.1375
     34 H16        52.3813   24.2869   90.4457 H         1 0ZZ         0.0479
     35 H17        52.3816   24.3458   92.2411 H         1 0ZZ         0.0479
@<TRIPOS>BOND
     1    1    2 2  
     2    1    3 1  
     3    5    4 1  
     4    5    8 1  
     5    6    5 1  
     6    6    7 2  
     7    8   10 1  
     8    8    9 1  
     9    4    1 am 
    10   11   12 1  
    11   12   15 1  
    12   12   13 1  
    13   13   14 2  
    14   15   16 1  
    15   16   18 ar 
    16   16   17 ar 
    17    6   11 am 
    18    3   19 1  
    19    3   20 1  
    20    3   21 1  
    21    4   22 1  
    22    5   23 1  
    23    8   24 1  
    24    9   25 1  
    25    9   26 1  
    26    9   27 1  
    27   10   28 1  
    28   10   29 1  
    29   10   30 1  
    30   11   31 1  
    31   12   32 1  
    32   13   33 1  
    33   15   34 1  
    34   15   35 1  
@<TRIPOS>SUBSTRUCTURE
     1 0ZZ         1

