### 
### Created by X-TOOL on Mon Sep 10 21:12:52 2018
### 

@<TRIPOS>MOLECULE
1rhr_ligand
   81    82     1     0     0
SMALL
GAST_HUCK


@<TRIPOS>ATOM
      1 C24        80.9400  -23.6640   99.7520 C.ar      1 CNE        -0.0321
      2 C25        79.5780  -23.5630   99.3320 C.ar      1 CNE         0.1020
      3 C20        78.5300  -23.4940  100.3120 C.ar      1 CNE         0.0111
      4 C21        78.9030  -23.5350  101.6970 C.ar      1 CNE        -0.0529
      5 C22        80.2640  -23.6340  102.1120 C.ar      1 CNE        -0.0300
      6 C23        81.2790  -23.7010  101.1260 C.ar      1 CNE        -0.0628
      7 C26        80.6490  -23.6800  103.5360 C.2       1 CNE        -0.0463
      8 C27        80.1000  -22.9160  104.5120 C.2       1 CNE         0.0162
      9 C28        80.5470  -23.0220  105.9290 C.2       1 CNE         0.2439
     10 O7         81.5180  -23.8870  106.2650 O.3       1 CNE        -0.2846
     11 O6         80.0180  -22.3180  106.7340 O.2       1 CNE        -0.3670
     12 C29        81.9530  -23.9870  107.6330 C.3       1 CNE         0.0639
     13 O8         79.3990  -23.5430   97.9320 O.3       1 CNE        -0.3171
     14 C30        79.5690  -22.3410   97.2010 C.3       1 CNE         0.0678
     15 C31        79.2850  -22.6270   95.7150 C.3       1 CNE        -0.0371
     16 C19        77.0930  -23.3870   99.8480 C.3       1 CNE         0.0700
     17 C18        76.5700  -21.9330   99.9680 C.2       1 CNE         0.1880
     18 N2         76.7550  -21.1690   98.8180 N.am      1 CNE        -0.2640
     19 O5         76.0350  -21.5260  100.9980 O.2       1 CNE        -0.3944
     20 C14        76.3110  -19.7600   98.7310 C.3       1 CNE         0.1332
     21 C13        74.8070  -19.8060   98.5360 C.2       1 CNE         0.2023
     22 C15        76.9780  -19.0180   97.5430 C.3       1 CNE        -0.0063
     23 C17        76.6770  -19.6440   96.1720 C.3       1 CNE        -0.0584
     24 C16        78.4900  -18.9350   97.7540 C.3       1 CNE        -0.0584
     25 O4         74.1970  -20.8640   98.4520 O.2       1 CNE        -0.3945
     26 N1         74.2420  -18.5900   98.4750 N.am      1 CNE        -0.2778
     27 C10        72.8140  -18.5040   98.2830 C.3       1 CNE         0.0800
     28 C9         72.3810  -17.4030   97.2530 C.3       1 CNE         0.0887
     29 C11        72.1990  -18.2720   99.7080 C.3       1 CNE         0.0257
     30 C12        70.9930  -19.1250  100.0510 C.2       1 CNE         0.0371
     31 O2         70.5070  -19.0490  101.1700 O.co2     1 CNE        -0.5689
     32 O3         70.5200  -19.8520   99.2490 O.co2     1 CNE        -0.5689
     33 C8         73.0220  -17.5900   95.8540 C.3       1 CNE         0.0240
     34 O1         70.9930  -17.5120   97.1160 O.3       1 CNE        -0.3886
     35 S1         72.4410  -16.3460   94.6880 S.3       1 CNE        -0.1449
     36 C7         73.2740  -16.7400   93.1410 C.3       1 CNE         0.0289
     37 C6         72.8030  -15.7960   92.0370 C.ar      1 CNE         0.0146
     38 C5         72.3790  -16.3360   90.7800 C.ar      1 CNE         0.1344
     39 C4         71.9230  -15.5280   89.7170 C.ar      1 CNE        -0.0347
     40 C3         71.8820  -14.1230   89.8730 C.ar      1 CNE        -0.0700
     41 C2         72.2920  -13.5380   91.0910 C.ar      1 CNE        -0.0586
     42 C1         72.7490  -14.3510   92.1590 C.ar      1 CNE         0.0404
     43 F1         72.3920  -17.6620   90.5610 F         1 CNE        -0.1891
     44 CL1        73.2280  -13.4880   93.6070 Cl        1 CNE        -0.0783
     45 H1         81.7259  -23.7131   99.0070 H         1 CNE         0.0543
     46 H2         78.1260  -23.4893  102.4515 H         1 CNE         0.0567
     47 H3         82.3181  -23.7808  101.4244 H         1 CNE         0.0582
     48 H4         81.4323  -24.3796  103.8241 H         1 CNE         0.0735
     49 H5         79.3137  -22.2081  104.2541 H         1 CNE         0.0617
     50 H6         82.7487  -24.7426  107.7104 H         1 CNE         0.0574
     51 H7         81.1041  -24.2823  108.2671 H         1 CNE         0.0574
     52 H8         82.3389  -23.0126  107.9672 H         1 CNE         0.0574
     53 H9         80.6009  -21.9785   97.3182 H         1 CNE         0.0612
     54 H10        78.8682  -21.5788   97.5724 H         1 CNE         0.0612
     55 H11        79.4128  -21.7025   95.1328 H         1 CNE         0.0256
     56 H12        78.2533  -22.9915   95.6024 H         1 CNE         0.0256
     57 H13        79.9860  -23.3912   95.3482 H         1 CNE         0.0256
     58 H14        76.4663  -24.0455  100.4674 H         1 CNE         0.0638
     59 H15        77.0312  -23.7045   98.7966 H         1 CNE         0.0638
     60 H16        77.2019  -21.5857   98.0264 H         1 CNE         0.1884
     61 H17        76.5563  -19.2337   99.6653 H         1 CNE         0.0802
     62 H18        76.5780  -17.9934   97.5312 H         1 CNE         0.0343
     63 H19        77.1824  -19.0645   95.3854 H         1 CNE         0.0234
     64 H20        75.5914  -19.6339   95.9947 H         1 CNE         0.0234
     65 H21        77.0418  -20.6816   96.1546 H         1 CNE         0.0234
     66 H22        78.6990  -18.4864   98.7364 H         1 CNE         0.0234
     67 H23        78.9368  -18.3131   96.9644 H         1 CNE         0.0234
     68 H24        78.9220  -19.9458   97.7132 H         1 CNE         0.0234
     69 H25        74.7975  -17.7629   98.5606 H         1 CNE         0.1857
     70 H26        72.4553  -19.4696   97.8970 H         1 CNE         0.0600
     71 H27        72.6517  -16.4107   97.6429 H         1 CNE         0.0626
     72 H28        71.8972  -17.2165   99.7780 H         1 CNE         0.0454
     73 H29        72.9822  -18.4796  100.4519 H         1 CNE         0.0454
     74 H30        72.7603  -18.5877   95.4717 H         1 CNE         0.0404
     75 H31        74.1149  -17.5084   95.9481 H         1 CNE         0.0404
     76 H32        70.7765  -18.3695   96.7691 H         1 CNE         0.2099
     77 H33        73.0421  -17.7770   92.8566 H         1 CNE         0.0532
     78 H34        74.3604  -16.6306   93.2744 H         1 CNE         0.0532
     79 H35        71.6056  -15.9820   88.7852 H         1 CNE         0.0587
     80 H36        71.5364  -13.4962   89.0589 H         1 CNE         0.0549
     81 H37        72.2572  -12.4611   91.2102 H         1 CNE         0.0571
@<TRIPOS>BOND
     1    1    2 ar 
     2    1    6 ar 
     3    2    3 ar 
     4    2   13 1  
     5    3    4 ar 
     6    3   16 1  
     7    4    5 ar 
     8    5    6 ar 
     9    5    7 1  
    10    7    8 2  
    11    8    9 1  
    12    9   10 1  
    13    9   11 2  
    14   10   12 1  
    15   13   14 1  
    16   14   15 1  
    17   16   17 1  
    18   17   18 am 
    19   17   19 2  
    20   18   20 1  
    21   20   21 1  
    22   20   22 1  
    23   21   25 2  
    24   21   26 am 
    25   22   23 1  
    26   22   24 1  
    27   26   27 1  
    28   27   28 1  
    29   27   29 1  
    30   28   33 1  
    31   28   34 1  
    32   29   30 1  
    33   30   31 ar 
    34   30   32 ar 
    35   33   35 1  
    36   35   36 1  
    37   36   37 1  
    38   37   38 ar 
    39   37   42 ar 
    40   38   39 ar 
    41   38   43 1  
    42   39   40 ar 
    43   40   41 ar 
    44   41   42 ar 
    45   42   44 1  
    46    1   45 1  
    47    4   46 1  
    48    6   47 1  
    49    7   48 1  
    50    8   49 1  
    51   12   50 1  
    52   12   51 1  
    53   12   52 1  
    54   14   53 1  
    55   14   54 1  
    56   15   55 1  
    57   15   56 1  
    58   15   57 1  
    59   16   58 1  
    60   16   59 1  
    61   18   60 1  
    62   20   61 1  
    63   22   62 1  
    64   23   63 1  
    65   23   64 1  
    66   23   65 1  
    67   24   66 1  
    68   24   67 1  
    69   24   68 1  
    70   26   69 1  
    71   27   70 1  
    72   28   71 1  
    73   29   72 1  
    74   29   73 1  
    75   33   74 1  
    76   33   75 1  
    77   34   76 1  
    78   36   77 1  
    79   36   78 1  
    80   39   79 1  
    81   40   80 1  
    82   41   81 1  
@<TRIPOS>SUBSTRUCTURE
     1 CNE         1

