### 
### Created by X-TOOL on Mon Sep 10 21:12:51 2018
### 

@<TRIPOS>MOLECULE
1rhu_ligand
   79    82     1     0     0
SMALL
GAST_HUCK


@<TRIPOS>ATOM
      1 C1         73.7440  -15.4720   90.4530 C.ar      1 3CY        -0.0595
      2 C2         73.3650  -14.7380   89.2950 C.ar      1 3CY        -0.0685
      3 C3         72.0270  -14.2770   89.1530 C.ar      1 3CY        -0.0687
      4 C4         71.0670  -14.5540   90.1610 C.ar      1 3CY        -0.0685
      5 C5         71.4520  -15.2850   91.3110 C.ar      1 3CY        -0.0595
      6 C6         72.7960  -15.7560   91.4750 C.ar      1 3CY        -0.0332
      7 C7         73.1700  -16.5480   92.7270 C.3       1 3CY         0.0275
      8 S1         72.2070  -16.0310   94.1560 S.3       1 3CY        -0.1443
      9 C8         72.7440  -17.1960   95.4220 C.3       1 3CY         0.0240
     10 C9         71.9900  -16.9800   96.7540 C.3       1 3CY         0.0887
     11 C10        72.3740  -18.0130   97.8450 C.3       1 3CY         0.0800
     12 O1         70.7480  -17.0500   96.4400 O.3       1 3CY        -0.3886
     13 N1         73.7830  -18.1420   98.0930 N.am      1 3CY        -0.2773
     14 C11        71.6720  -17.7070   99.2130 C.3       1 3CY         0.0257
     15 C12        70.6410  -18.7410   99.6630 C.2       1 3CY         0.0371
     16 O2         70.2550  -18.7530  100.8120 O.co2     1 3CY        -0.5689
     17 O3         70.2090  -19.5430   98.8810 O.co2     1 3CY        -0.5689
     18 C13        74.3530  -19.3070   97.8240 C.2       1 3CY         0.2091
     19 O4         73.7500  -20.3150   97.3490 O.2       1 3CY        -0.3938
     20 C21        76.8000  -21.0770   96.9440 C.ar      1 3CY         0.0770
     21 N2         76.2500  -20.8240   98.1760 N.am      1 3CY        -0.2010
     22 C14        75.8420  -19.4090   98.1700 C.3       1 3CY         0.1590
     23 C15        76.8720  -18.7420   97.1670 C.3       1 3CY         0.0207
     24 C16        77.1930  -19.9200   96.3250 C.ar      1 3CY        -0.0221
     25 C17        77.8080  -19.9540   95.0560 C.ar      1 3CY        -0.0799
     26 C18        78.0000  -21.2070   94.4230 C.ar      1 3CY        -0.0903
     27 C19        77.5740  -22.4130   95.0560 C.ar      1 3CY        -0.0802
     28 C20        76.9540  -22.3790   96.3400 C.ar      1 3CY        -0.0268
     29 C22        76.4300  -23.6430   97.0530 C.3       1 3CY        -0.0206
     30 C23        76.6620  -23.9330   98.5530 C.3       1 3CY        -0.0045
     31 C24        77.2360  -22.7900   99.3680 C.3       1 3CY         0.1378
     32 C25        76.3490  -21.5310   99.3550 C.2       1 3CY         0.2306
     33 O5         75.7820  -21.1930  100.4330 O.2       1 3CY        -0.3838
     34 N3         77.4380  -23.1660  100.7700 N.am      1 3CY        -0.2630
     35 C26        78.5350  -23.8260  101.1540 C.2       1 3CY         0.2056
     36 C27        78.6190  -24.1060  102.6620 C.3       1 3CY         0.1422
     37 O6         79.4840  -24.1970  100.3920 O.2       1 3CY        -0.3943
     38 N4         79.0480  -25.5000  102.8890 N.am      1 3CY        -0.2643
     39 C30        78.1690  -26.5370  102.9220 C.2       1 3CY         0.1752
     40 C31        78.8400  -27.8940  103.1730 C.3       1 3CY         0.0258
     41 O9         76.9060  -26.4380  102.7660 O.2       1 3CY        -0.3972
     42 C28        79.6160  -23.0970  103.2830 C.3       1 3CY         0.0406
     43 C29        79.8120  -23.2420  104.7860 C.2       1 3CY         0.0393
     44 O8         80.9340  -23.3080  105.2410 O.co2     1 3CY        -0.5688
     45 O7         78.8490  -23.2800  105.5260 O.co2     1 3CY        -0.5688
     46 H1         74.7658  -15.8185   90.5578 H         1 3CY         0.0557
     47 H2         74.0953  -14.5302   88.5214 H         1 3CY         0.0599
     48 H3         71.7398  -13.7129   88.2730 H         1 3CY         0.0559
     49 H4         70.0455  -14.2081   90.0512 H         1 3CY         0.0599
     50 H5         70.7175  -15.4921   92.0809 H         1 3CY         0.0557
     51 H6         74.2375  -16.3919   92.9416 H         1 3CY         0.0538
     52 H7         72.9857  -17.6164   92.5410 H         1 3CY         0.0538
     53 H8         73.8217  -17.0613   95.5965 H         1 3CY         0.0404
     54 H9         72.5551  -18.2200   95.0674 H         1 3CY         0.0404
     55 H10        72.2162  -15.9762   97.1429 H         1 3CY         0.0626
     56 H11        72.0137  -18.9901   97.4907 H         1 3CY         0.0600
     57 H12        70.5551  -17.9187   96.1072 H         1 3CY         0.2099
     58 H13        74.3158  -17.3778   98.4566 H         1 3CY         0.1857
     59 H14        71.1630  -16.7359   99.1242 H         1 3CY         0.0454
     60 H15        72.4503  -17.6436   99.9878 H         1 3CY         0.0454
     61 H16        75.9818  -18.9655   99.1669 H         1 3CY         0.0881
     62 H17        77.7605  -18.3559   97.6880 H         1 3CY         0.0447
     63 H18        76.4097  -17.9334   96.5819 H         1 3CY         0.0447
     64 H19        78.1281  -19.0376   94.5735 H         1 3CY         0.0460
     65 H20        78.4746  -21.2499   93.4494 H         1 3CY         0.0454
     66 H21        77.7230  -23.3634   94.5564 H         1 3CY         0.0460
     67 H22        76.8644  -24.4960   96.5111 H         1 3CY         0.0397
     68 H23        75.3390  -23.6368   96.9131 H         1 3CY         0.0397
     69 H24        77.3566  -24.7826   98.6285 H         1 3CY         0.0331
     70 H25        75.6942  -24.2101   98.9963 H         1 3CY         0.0331
     71 H26        78.2113  -22.5306   98.9305 H         1 3CY         0.0806
     72 H27        76.7449  -22.9252  101.4494 H         1 3CY         0.1884
     73 H28        77.6284  -23.9613  103.1178 H         1 3CY         0.0819
     74 H29        80.0208  -25.6887  103.0235 H         1 3CY         0.1884
     75 H30        78.0749  -28.6842  103.1873 H         1 3CY         0.0467
     76 H31        79.3620  -27.8715  104.1410 H         1 3CY         0.0467
     77 H32        79.5640  -28.0991  102.3707 H         1 3CY         0.0467
     78 H33        79.2457  -22.0809  103.0819 H         1 3CY         0.0478
     79 H34        80.5921  -23.2348  102.7950 H         1 3CY         0.0478
@<TRIPOS>BOND
     1    1    2 ar 
     2    6    1 ar 
     3    2    3 ar 
     4    4    3 ar 
     5    5    4 ar 
     6    6    5 ar 
     7    7    6 1  
     8    8    7 1  
     9    9    8 1  
    10   10    9 1  
    11   11   10 1  
    12   10   12 1  
    13   13   11 1  
    14   11   14 1  
    15   18   13 am 
    16   14   15 1  
    17   15   16 ar 
    18   15   17 ar 
    19   18   19 2  
    20   22   18 1  
    21   21   20 1  
    22   20   24 ar 
    23   20   28 ar 
    24   21   22 1  
    25   21   32 am 
    26   22   23 1  
    27   23   24 1  
    28   24   25 ar 
    29   25   26 ar 
    30   26   27 ar 
    31   27   28 ar 
    32   28   29 1  
    33   29   30 1  
    34   30   31 1  
    35   31   32 1  
    36   31   34 1  
    37   32   33 2  
    38   34   35 am 
    39   35   36 1  
    40   35   37 2  
    41   36   38 1  
    42   36   42 1  
    43   38   39 am 
    44   39   40 1  
    45   39   41 2  
    46   42   43 1  
    47   43   44 ar 
    48   43   45 ar 
    49    1   46 1  
    50    2   47 1  
    51    3   48 1  
    52    4   49 1  
    53    5   50 1  
    54    7   51 1  
    55    7   52 1  
    56    9   53 1  
    57    9   54 1  
    58   10   55 1  
    59   11   56 1  
    60   12   57 1  
    61   13   58 1  
    62   14   59 1  
    63   14   60 1  
    64   22   61 1  
    65   23   62 1  
    66   23   63 1  
    67   25   64 1  
    68   26   65 1  
    69   27   66 1  
    70   29   67 1  
    71   29   68 1  
    72   30   69 1  
    73   30   70 1  
    74   31   71 1  
    75   34   72 1  
    76   36   73 1  
    77   38   74 1  
    78   40   75 1  
    79   40   76 1  
    80   40   77 1  
    81   42   78 1  
    82   42   79 1  
@<TRIPOS>SUBSTRUCTURE
     1 3CY         1

