### 
### Created by X-TOOL on Fri Nov 18 11:53:48 2016
### 

@<TRIPOS>MOLECULE
1rin_ligand
   24    24     1     0     0
SMALL
GAST_HUCK


@<TRIPOS>ATOM
      1 C1         15.4930    5.7790   24.4630 C.3       1 MAN         0.1854
      2 C2         16.0590    5.3190   25.8110 C.3       1 MAN         0.1339
      3 C3         16.7680    6.4850   26.4760 C.3       1 MAN         0.1141
      4 C4         17.8410    6.9760   25.5660 C.3       1 MAN         0.1119
      5 C5         17.2340    7.3580   24.2370 C.3       1 MAN         0.1130
      6 C6         18.2780    7.8450   23.2640 C.3       1 MAN         0.0730
      7 O1         14.4730    6.7840   24.5860 O.3       1 MAN        -0.3649
      8 O2         16.9320    4.1970   25.6540 O.3       1 MAN        -0.3841
      9 O3         17.3040    6.1310   27.7390 O.3       1 MAN        -0.3864
     10 O4         18.4430    8.0980   26.1450 O.3       1 MAN        -0.3865
     11 O5         16.5800    6.2370   23.6650 O.3       1 MAN        -0.3407
     12 O6         19.0670    6.8100   22.7520 O.3       1 MAN        -0.3924
     13 H1         15.0392    4.9080   23.9677 H         1 MAN         0.0935
     14 H2         15.2210    5.0098   26.4530 H         1 MAN         0.0671
     15 H3         16.0386    7.2938   26.6299 H         1 MAN         0.0648
     16 H4         18.5924    6.1867   25.4161 H         1 MAN         0.0647
     17 H5         16.5004    8.1605   24.4040 H         1 MAN         0.0647
     18 H6         18.9321    8.5628   23.7806 H         1 MAN         0.0584
     19 H7         17.7711    8.3474   22.4270 H         1 MAN         0.0584
     20 H8         14.8413    7.5591   24.9935 H         1 MAN         0.2126
     21 H9         17.2406    3.9155   26.5073 H         1 MAN         0.2101
     22 H10        17.7155    6.8919   28.1317 H         1 MAN         0.2100
     23 H11        19.1236    8.4240   25.5679 H         1 MAN         0.2100
     24 H12        19.5164    6.3731   23.4659 H         1 MAN         0.2095
@<TRIPOS>BOND
     1    1    2 1  
     2    1    7 1  
     3    1   11 1  
     4    2    3 1  
     5    2    8 1  
     6    3    4 1  
     7    3    9 1  
     8    4    5 1  
     9    4   10 1  
    10    5    6 1  
    11    5   11 1  
    12    6   12 1  
    13    1   13 1  
    14    2   14 1  
    15    3   15 1  
    16    4   16 1  
    17    5   17 1  
    18    6   18 1  
    19    6   19 1  
    20    7   20 1  
    21    8   21 1  
    22    9   22 1  
    23   10   23 1  
    24   12   24 1  
@<TRIPOS>SUBSTRUCTURE
     1 MAN         1

