### 
### Created by X-TOOL on Mon Sep 10 21:12:51 2018
### 

@<TRIPOS>MOLECULE
1riw_ligand
   88    92     1     0     0
SMALL
GAST_HUCK


@<TRIPOS>ATOM
      1 N1         18.4050  -13.5480   21.8650 N.am      1 OSC        -0.2463
      2 C2         19.4900  -14.3840   21.2580 C.3       1 OSC         0.0532
      3 C3         18.3810  -12.2470   21.1490 C.3       1 OSC         0.1342
      4 C4         17.5840  -13.9150   22.9060 C.2       1 OSC         0.2087
      5 C5         20.4930  -13.3190   20.7590 C.3       1 OSC        -0.0132
      6 C6         18.9240  -15.3080   20.1270 C.3       1 OSC        -0.0031
      7 C7         19.5200  -12.3060   20.1090 C.3       1 OSC        -0.0073
      8 C8         17.0690  -12.0270   20.4460 C.2       1 OSC         0.2021
      9 C9         17.7360  -15.2770   23.5560 C.3       1 OSC         0.1407
     10 O10        16.7260  -13.1460   23.3220 O.2       1 OSC        -0.3940
     11 C11        21.4710  -13.8360   19.6810 C.3       1 OSC        -0.0456
     12 C12        20.0350  -15.9170   19.2430 C.3       1 OSC         0.0574
     13 N13        16.5950  -10.7680   20.2880 N.am      1 OSC        -0.2818
     14 O14        16.4520  -12.9840   20.0210 O.2       1 OSC        -0.3945
     15 C15        18.1880  -15.1470   25.0260 C.3       1 OSC         0.0214
     16 N16        16.4580  -15.9760   23.4660 N.am      1 OSC        -0.2616
     17 C17        20.8400  -14.7580   18.5940 C.3       1 OSC        -0.0265
     18 O18        20.9030  -16.7430   20.0270 O.3       1 OSC        -0.3917
     19 C19        15.3240  -10.5270   19.5950 C.3       1 OSC         0.0468
     20 C20        19.6350  -14.6800   25.0880 C.ar      1 OSC        -0.0386
     21 C21        16.3590  -17.1460   22.7830 C.2       1 OSC         0.2093
     22 C22        14.4230   -9.6100   20.4410 C.3       1 OSC         0.0297
     23 C23        19.9470  -13.4180   25.6400 C.ar      1 OSC        -0.0601
     24 C24        20.6780  -15.5050   24.5880 C.ar      1 OSC        -0.0601
     25 C25        15.0270  -17.8340   22.6890 C.3       1 OSC         0.1530
     26 O26        17.3370  -17.6390   22.2380 O.2       1 OSC        -0.3939
     27 C27        13.6670  -10.3860   21.5090 C.2       1 OSC         0.0766
     28 C28        21.2890  -12.9790   25.6940 C.ar      1 OSC        -0.0686
     29 C29        22.0160  -15.0640   24.6430 C.ar      1 OSC        -0.0686
     30 C30        14.9200  -18.9580   23.7300 C.3       1 OSC         0.0244
     31 O31        13.9840  -16.8740   22.8990 O.3       1 OSC        -0.3693
     32 C32        13.1040   -9.7600   22.7550 C.2       1 OSC         0.1558
     33 C33        13.4000  -11.6670   21.4920 C.2       1 OSC         0.0420
     34 C34        22.3210  -13.8010   25.1950 C.ar      1 OSC        -0.0687
     35 C35        13.7510  -19.8490   23.3690 C.ar      1 OSC        -0.0383
     36 N36        12.2350  -10.7910   23.3500 N.pl3     1 OSC        -0.1429
     37 C37        12.6320  -12.0660   22.7220 C.2       1 OSC         0.1268
     38 C38        13.9230  -20.9320   22.4740 C.ar      1 OSC        -0.0601
     39 C39        12.4830  -19.5950   23.9250 C.ar      1 OSC        -0.0601
     40 C40        11.2620  -10.6050   24.3040 C.cat     1 OSC         0.1920
     41 C41        12.8230  -21.7550   22.1410 C.ar      1 OSC        -0.0686
     42 C42        11.3850  -20.4150   23.5930 C.ar      1 OSC        -0.0686
     43 N43        10.5890  -11.6870   24.8210 N.pl3     1 OSC        -0.3456
     44 N44        10.9720   -9.4030   24.7190 N.pl3     1 OSC        -0.3456
     45 C45        11.5540  -21.4920   22.7020 C.ar      1 OSC        -0.0687
     46 H1         19.9633  -15.0196   22.0209 H         1 OSC         0.0564
     47 H2         18.5543  -11.4252   21.8593 H         1 OSC         0.0802
     48 H3         21.0596  -12.8804   21.5936 H         1 OSC         0.0325
     49 H4         18.2533  -14.7133   19.4894 H         1 OSC         0.0313
     50 H5         18.3564  -16.1270   20.5928 H         1 OSC         0.0313
     51 H6         19.9946  -11.3222   19.9790 H         1 OSC         0.0316
     52 H7         19.1556  -12.6687   19.1366 H         1 OSC         0.0316
     53 H8         18.4973  -15.8510   23.0074 H         1 OSC         0.0823
     54 H9         22.2658  -14.4032   20.1875 H         1 OSC         0.0269
     55 H10        21.9092  -12.9639   19.1737 H         1 OSC         0.0269
     56 H11        19.5761  -16.5294   18.4529 H         1 OSC         0.0594
     57 H12        17.1168   -9.9943   20.6475 H         1 OSC         0.1854
     58 H13        18.0997  -16.1249   25.5218 H         1 OSC         0.0474
     59 H14        17.5472  -14.4158   25.5405 H         1 OSC         0.0474
     60 H15        15.6492  -15.5908   23.9104 H         1 OSC         0.1885
     61 H16        21.6425  -15.1819   17.9725 H         1 OSC         0.0290
     62 H17        20.1649  -14.1605   17.9638 H         1 OSC         0.0290
     63 H18        20.3998  -17.4474   20.4183 H         1 OSC         0.2098
     64 H19        14.8126  -11.4867   19.4297 H         1 OSC         0.0557
     65 H20        15.5239  -10.0463   18.6260 H         1 OSC         0.0557
     66 H21        13.6964   -9.1163   19.7790 H         1 OSC         0.0552
     67 H22        15.0491   -8.8494   20.9304 H         1 OSC         0.0552
     68 H23        19.1551  -12.7847   26.0232 H         1 OSC         0.0557
     69 H24        20.4447  -16.4748   24.1636 H         1 OSC         0.0557
     70 H25        14.9196  -18.2691   21.6844 H         1 OSC         0.0861
     71 H26        21.5255  -12.0102   26.1190 H         1 OSC         0.0599
     72 H27        22.8106  -15.6948   24.2614 H         1 OSC         0.0599
     73 H28        14.7591  -18.5236   24.7277 H         1 OSC         0.0476
     74 H29        15.8478  -19.5488   23.7326 H         1 OSC         0.0476
     75 H30        14.0567  -16.1824   22.2518 H         1 OSC         0.2135
     76 H31        13.2972   -8.7584   23.1364 H         1 OSC         0.1886
     77 H32        13.6936  -12.3503   20.6965 H         1 OSC         0.0716
     78 H33        23.3499  -13.4623   25.2355 H         1 OSC         0.0559
     79 H34        12.4163  -13.0743   23.0722 H         1 OSC         0.1718
     80 H35        14.8981  -21.1303   22.0440 H         1 OSC         0.0557
     81 H36        12.3502  -18.7661   24.6108 H         1 OSC         0.0557
     82 H37        12.9532  -22.5857   21.4569 H         1 OSC         0.0599
     83 H38        10.4104  -20.2161   24.0239 H         1 OSC         0.0599
     84 H39         9.8604  -11.5470   25.5355 H         1 OSC         0.1669
     85 H40        10.8135  -12.6375   24.4938 H         1 OSC         0.1669
     86 H41        11.4740   -8.5902   24.3340 H         1 OSC         0.1669
     87 H42        10.2410   -9.2666   25.4317 H         1 OSC         0.1669
     88 H43        10.7086  -22.1204   22.4462 H         1 OSC         0.0559
@<TRIPOS>BOND
     1    1    2 1  
     2    1    3 1  
     3    1    4 am 
     4    2    5 1  
     5    2    6 1  
     6    3    7 1  
     7    3    8 1  
     8    4    9 1  
     9    4   10 2  
    10    5    7 1  
    11    5   11 1  
    12    6   12 1  
    13    8   13 am 
    14    8   14 2  
    15    9   15 1  
    16    9   16 1  
    17   11   17 1  
    18   12   17 1  
    19   12   18 1  
    20   13   19 1  
    21   15   20 1  
    22   16   21 am 
    23   19   22 1  
    24   20   23 ar 
    25   20   24 ar 
    26   21   25 1  
    27   21   26 2  
    28   22   27 1  
    29   23   28 ar 
    30   24   29 ar 
    31   25   30 1  
    32   25   31 1  
    33   27   32 2  
    34   27   33 1  
    35   28   34 ar 
    36   29   34 ar 
    37   30   35 1  
    38   32   36 1  
    39   33   37 2  
    40   35   38 ar 
    41   35   39 ar 
    42   36   37 1  
    43   36   40 ar 
    44   38   41 ar 
    45   39   42 ar 
    46   40   43 ar 
    47   40   44 ar 
    48   41   45 ar 
    49   42   45 ar 
    50    2   46 1  
    51    3   47 1  
    52    5   48 1  
    53    6   49 1  
    54    6   50 1  
    55    7   51 1  
    56    7   52 1  
    57    9   53 1  
    58   11   54 1  
    59   11   55 1  
    60   12   56 1  
    61   13   57 1  
    62   15   58 1  
    63   15   59 1  
    64   16   60 1  
    65   17   61 1  
    66   17   62 1  
    67   18   63 1  
    68   19   64 1  
    69   19   65 1  
    70   22   66 1  
    71   22   67 1  
    72   23   68 1  
    73   24   69 1  
    74   25   70 1  
    75   28   71 1  
    76   29   72 1  
    77   30   73 1  
    78   30   74 1  
    79   31   75 1  
    80   32   76 1  
    81   33   77 1  
    82   34   78 1  
    83   37   79 1  
    84   38   80 1  
    85   39   81 1  
    86   41   82 1  
    87   42   83 1  
    88   43   84 1  
    89   43   85 1  
    90   44   86 1  
    91   44   87 1  
    92   45   88 1  
@<TRIPOS>SUBSTRUCTURE
     1 OSC         1

