### 
### Created by X-TOOL on Mon Sep 10 21:12:51 2018
### 

@<TRIPOS>MOLECULE
1rjk_ligand
   74    76     1     0     0
SMALL
GAST_HUCK


@<TRIPOS>ATOM
      1 O1         60.7500    4.4650    2.3210 O.3       1 VDZ        -0.3742
      2 C1         60.3420    5.6240    1.5500 C.3       1 VDZ         0.1023
      3 C2         60.7740    6.9480    2.0310 C.2       1 VDZ        -0.0127
      4 C28        61.4370    7.0540    3.1640 C.2       1 VDZ        -0.1238
      5 C3         60.5680    8.2070    1.2310 C.3       1 VDZ         0.1023
      6 O2         59.0680    8.2300    1.2610 O.3       1 VDZ        -0.3742
      7 C4         60.9350    8.1270   -0.2230 C.3       1 VDZ         0.0150
      8 C10        60.9120    5.5430    0.1050 C.3       1 VDZ         0.0150
      9 C5         60.7380    6.7730   -0.8220 C.2       1 VDZ        -0.0657
     10 C6         60.3730    6.8190   -2.1860 C.2       1 VDZ        -0.1086
     11 C7         60.0870    5.5890   -2.9850 C.2       1 VDZ        -0.1089
     12 C8         60.4170    5.4320   -4.2500 C.2       1 VDZ        -0.0718
     13 C9         61.2090    6.4650   -5.0040 C.3       1 VDZ        -0.0234
     14 C11        62.5240    5.7880   -5.4630 C.3       1 VDZ        -0.0423
     15 C14        60.0790    4.1080   -4.9030 C.3       1 VDZ        -0.0062
     16 C13        61.4720    3.4610   -5.3350 C.3       1 VDZ        -0.0161
     17 C12        62.3850    4.4010   -6.1410 C.3       1 VDZ        -0.0431
     18 C18        62.2880    3.1140   -3.9840 C.3       1 VDZ        -0.0570
     19 C15        59.1980    3.0270   -4.3210 C.3       1 VDZ        -0.0393
     20 C16        59.6510    1.7530   -5.1050 C.3       1 VDZ        -0.0470
     21 C17        60.9460    2.1400   -5.9090 C.3       1 VDZ        -0.0306
     22 C20        61.8400    0.9140   -6.0080 C.3       1 VDZ        -0.0404
     23 C21        61.0040   -0.1080   -6.8150 C.3       1 VDZ        -0.0621
     24 C22        63.2710    1.1470   -6.5570 C.3       1 VDZ        -0.0501
     25 C23        64.0700   -0.1510   -6.5920 C.3       1 VDZ        -0.0502
     26 C24        65.5740    0.0140   -6.8040 C.3       1 VDZ        -0.0245
     27 C25        66.3780   -1.3180   -6.6720 C.3       1 VDZ         0.0605
     28 C26        67.6920   -1.0490   -7.3470 C.3       1 VDZ        -0.0363
     29 C27        66.5370   -1.8900   -5.2340 C.3       1 VDZ        -0.0363
     30 O3         65.7230   -2.3130   -7.4020 O.3       1 VDZ        -0.3891
     31 H1         61.6987    4.4243    2.3516 H         1 VDZ         0.2139
     32 H2         59.2426    5.6144    1.5143 H         1 VDZ         0.0819
     33 H3         61.7559    8.0330    3.5187 H         1 VDZ         0.0077
     34 H4         61.6663    6.1627    3.7461 H         1 VDZ         0.0077
     35 H5         61.0443    9.0787    1.7036 H         1 VDZ         0.0819
     36 H6         58.7711    8.2759    2.1622 H         1 VDZ         0.2139
     37 H7         61.9949    8.4018   -0.3286 H         1 VDZ         0.0490
     38 H8         60.3130    8.8451   -0.7775 H         1 VDZ         0.0490
     39 H9         60.4249    4.6901   -0.3903 H         1 VDZ         0.0490
     40 H10        61.9915    5.3496    0.1907 H         1 VDZ         0.0490
     41 H11        60.2971    7.7893   -2.6745 H         1 VDZ         0.0219
     42 H12        59.5716    4.7683   -2.4882 H         1 VDZ         0.0219
     43 H13        61.4338    7.3197   -4.3490 H         1 VDZ         0.0437
     44 H14        60.6391    6.8128   -5.8782 H         1 VDZ         0.0437
     45 H15        63.1639    5.6646   -4.5769 H         1 VDZ         0.0290
     46 H16        63.0155    6.4628   -6.1792 H         1 VDZ         0.0290
     47 H17        59.5515    4.3962   -5.8242 H         1 VDZ         0.0478
     48 H18        63.3820    3.9438   -6.2246 H         1 VDZ         0.0274
     49 H19        61.9584    4.5368   -7.1458 H         1 VDZ         0.0274
     50 H20        61.6874    2.4396   -3.3559 H         1 VDZ         0.0237
     51 H21        62.4945    4.0425   -3.4316 H         1 VDZ         0.0237
     52 H22        63.2375    2.6236   -4.2448 H         1 VDZ         0.0237
     53 H23        58.1344    3.2442   -4.4984 H         1 VDZ         0.0293
     54 H24        59.3735    2.9112   -3.2413 H         1 VDZ         0.0293
     55 H25        58.8581    1.4346   -5.7977 H         1 VDZ         0.0270
     56 H26        59.8734    0.9367   -4.4020 H         1 VDZ         0.0270
     57 H27        60.6490    2.3670   -6.9435 H         1 VDZ         0.0311
     58 H28        61.9730    0.5167   -4.9909 H         1 VDZ         0.0301
     59 H29        61.5794   -1.0375   -6.9370 H         1 VDZ         0.0233
     60 H30        60.7692    0.3104   -7.8048 H         1 VDZ         0.0233
     61 H31        60.0692   -0.3235   -6.2768 H         1 VDZ         0.0233
     62 H32        63.7897    1.8695   -5.9098 H         1 VDZ         0.0268
     63 H33        63.2016    1.5524   -7.5772 H         1 VDZ         0.0268
     64 H34        63.6771   -0.7700   -7.4120 H         1 VDZ         0.0266
     65 H35        63.9167   -0.6704   -5.6346 H         1 VDZ         0.0266
     66 H36        65.9541    0.7243   -6.0551 H         1 VDZ         0.0293
     67 H37        65.7397    0.4208   -7.8125 H         1 VDZ         0.0293
     68 H38        68.3217   -1.9495   -7.2956 H         1 VDZ         0.0257
     69 H39        68.2011   -0.2162   -6.8398 H         1 VDZ         0.0257
     70 H40        67.5159   -0.7844   -8.4001 H         1 VDZ         0.0257
     71 H41        65.5428   -2.0643   -4.7968 H         1 VDZ         0.0257
     72 H42        67.0900   -1.1705   -4.6122 H         1 VDZ         0.0257
     73 H43        67.0906   -2.8396   -5.2762 H         1 VDZ         0.0257
     74 H44        65.5828   -2.0110   -8.2917 H         1 VDZ         0.2101
@<TRIPOS>BOND
     1    1    2 1  
     2    2    3 1  
     3    2    8 1  
     4    3    4 2  
     5    3    5 1  
     6    5    6 1  
     7    5    7 1  
     8    7    9 1  
     9    8    9 1  
    10    9   10 2  
    11   10   11 1  
    12   11   12 2  
    13   12   13 1  
    14   12   15 1  
    15   13   14 1  
    16   14   17 1  
    17   15   16 1  
    18   15   19 1  
    19   16   17 1  
    20   16   18 1  
    21   16   21 1  
    22   19   20 1  
    23   20   21 1  
    24   21   22 1  
    25   22   23 1  
    26   22   24 1  
    27   24   25 1  
    28   25   26 1  
    29   26   27 1  
    30   27   28 1  
    31   27   29 1  
    32   27   30 1  
    33    1   31 1  
    34    2   32 1  
    35    4   33 1  
    36    4   34 1  
    37    5   35 1  
    38    6   36 1  
    39    7   37 1  
    40    7   38 1  
    41    8   39 1  
    42    8   40 1  
    43   10   41 1  
    44   11   42 1  
    45   13   43 1  
    46   13   44 1  
    47   14   45 1  
    48   14   46 1  
    49   15   47 1  
    50   17   48 1  
    51   17   49 1  
    52   18   50 1  
    53   18   51 1  
    54   18   52 1  
    55   19   53 1  
    56   19   54 1  
    57   20   55 1  
    58   20   56 1  
    59   21   57 1  
    60   22   58 1  
    61   23   59 1  
    62   23   60 1  
    63   23   61 1  
    64   24   62 1  
    65   24   63 1  
    66   25   64 1  
    67   25   65 1  
    68   26   66 1  
    69   26   67 1  
    70   28   68 1  
    71   28   69 1  
    72   28   70 1  
    73   29   71 1  
    74   29   72 1  
    75   29   73 1  
    76   30   74 1  
@<TRIPOS>SUBSTRUCTURE
     1 VDZ         1

