### 
### Created by X-TOOL on Mon Sep 10 21:12:51 2018
### 

@<TRIPOS>MOLECULE
1rmz_ligand
   41    41     1     0     0
SMALL
GAST_HUCK


@<TRIPOS>ATOM
      1 C1          5.6860   25.7730    5.1030 C.ar      1 NGH        -0.0440
      2 C2          4.8190   24.5880    5.4310 C.ar      1 NGH        -0.0313
      3 C3          5.3440   23.2220    5.0390 C.ar      1 NGH         0.0908
      4 C4          6.7490   22.9920    4.6070 C.ar      1 NGH        -0.0313
      5 C5          7.5880   24.1570    4.3210 C.ar      1 NGH        -0.0440
      6 C6          6.9710   25.5300    4.3710 C.ar      1 NGH         0.0973
      7 O1          4.8060   22.0520    5.6080 O.3       1 NGH        -0.3212
      8 C7          3.4810   22.1230    6.1270 C.3       1 NGH         0.0594
      9 S1          8.0310   26.8030    4.1980 S.o2      1 NGH         0.0676
     10 O2          9.4750   26.2970    4.2240 O.2       1 NGH        -0.1514
     11 O3          7.7140   27.9250    5.2210 O.2       1 NGH        -0.1514
     12 N           7.8730   27.1890    2.6870 N.am      1 NGH        -0.2163
     13 C9          6.7760   28.0630    2.2290 C.3       1 NGH         0.0344
     14 C10         8.7190   26.5180    1.6770 C.3       1 NGH         0.1202
     15 C11         7.8710   25.3180    1.2280 C.2       1 NGH         0.2177
     16 N1          8.5430   24.1350    0.8100 N.am      1 NGH        -0.1629
     17 O4          7.8450   23.1190    0.5040 O.3       1 NGH        -0.2717
     18 O5          6.8870   25.5300    0.2820 O.2       1 NGH        -0.3952
     19 C12         7.2480   29.3240    1.4730 C.3       1 NGH        -0.0294
     20 C13         7.6240   30.4300    2.4390 C.3       1 NGH        -0.0612
     21 C14         6.2040   29.8250    0.4700 C.3       1 NGH        -0.0612
     22 H1          5.3892   26.7757    5.3885 H         1 NGH         0.0608
     23 H2          3.8617   24.7063    5.9256 H         1 NGH         0.0542
     24 H3          7.1417   21.9866    4.5065 H         1 NGH         0.0542
     25 H4          8.6369   24.0334    4.0770 H         1 NGH         0.0608
     26 H5          3.1947   21.1431    6.5366 H         1 NGH         0.0577
     27 H6          2.7859   22.4008    5.3210 H         1 NGH         0.0577
     28 H7          3.4395   22.8799    6.9241 H         1 NGH         0.0577
     29 H8          6.1994   28.3836    3.1092 H         1 NGH         0.0482
     30 H9          6.1275   27.4806    1.5580 H         1 NGH         0.0482
     31 H10         9.6681   26.1830    2.1208 H         1 NGH         0.0719
     32 H11         8.9266   27.1896    0.8309 H         1 NGH         0.0719
     33 H12         9.5412   24.1045    0.7585 H         1 NGH         0.2217
     34 H13         8.4193   22.4078    0.2456 H         1 NGH         0.2490
     35 H14         8.1500   29.0506    0.9058 H         1 NGH         0.0311
     36 H15         7.9555   31.3135    1.8737 H         1 NGH         0.0233
     37 H16         8.4394   30.0852    3.0918 H         1 NGH         0.0233
     38 H17         6.7499   30.6940    3.0524 H         1 NGH         0.0233
     39 H18         5.9418   29.0121   -0.2232 H         1 NGH         0.0233
     40 H19         6.6175   30.6717   -0.0975 H         1 NGH         0.0233
     41 H20         5.3030   30.1508    1.0104 H         1 NGH         0.0233
@<TRIPOS>BOND
     1    1    2 ar 
     2    1    6 ar 
     3    2    3 ar 
     4    3    4 ar 
     5    3    7 1  
     6    4    5 ar 
     7    5    6 ar 
     8    6    9 1  
     9    7    8 1  
    10    9   10 2  
    11    9   11 2  
    12    9   12 am 
    13   12   13 1  
    14   12   14 1  
    15   13   19 1  
    16   14   15 1  
    17   15   16 am 
    18   15   18 2  
    19   16   17 1  
    20   19   20 1  
    21   19   21 1  
    22    1   22 1  
    23    2   23 1  
    24    4   24 1  
    25    5   25 1  
    26    8   26 1  
    27    8   27 1  
    28    8   28 1  
    29   13   29 1  
    30   13   30 1  
    31   14   31 1  
    32   14   32 1  
    33   16   33 1  
    34   17   34 1  
    35   19   35 1  
    36   20   36 1  
    37   20   37 1  
    38   20   38 1  
    39   21   39 1  
    40   21   40 1  
    41   21   41 1  
@<TRIPOS>SUBSTRUCTURE
     1 NGH         1

