### 
### Created by X-TOOL on Mon Sep 10 21:12:51 2018
### 

@<TRIPOS>MOLECULE
1ro6_ligand
   41    43     1     0     0
SMALL
GAST_HUCK


@<TRIPOS>ATOM
      1 C5         32.3880   75.3670   22.0660 C.ar      1 ROL        -0.0554
      2 C6         32.0700   75.9080   20.8170 C.ar      1 ROL        -0.0393
      3 C7         31.7440   77.2840   20.6410 C.ar      1 ROL         0.1139
      4 C8         31.7800   78.1470   21.7500 C.ar      1 ROL         0.1122
      5 C9         32.0800   77.6010   23.0140 C.ar      1 ROL        -0.0479
      6 C10        32.3680   76.2310   23.1800 C.ar      1 ROL        -0.0796
      7 C3         32.7140   73.8820   22.1460 C.3       1 ROL         0.0221
      8 C2         34.0240   73.4890   22.8680 C.3       1 ROL         0.0499
      9 C1         33.5700   72.4390   23.8950 C.2       1 ROL         0.1782
     10 O1         34.2760   71.9940   24.7980 O.2       1 ROL        -0.3969
     11 N1         32.2890   72.1030   23.6680 N.am      1 ROL        -0.2847
     12 C4         31.6120   73.0950   22.8460 C.3       1 ROL         0.0437
     13 O3         31.3730   77.8860   19.4320 O.3       1 ROL        -0.3201
     14 C11        31.1640   77.0760   18.2680 C.3       1 ROL         0.0787
     15 C15        32.5030   76.7930   17.5870 C.3       1 ROL        -0.0226
     16 C14        32.8320   78.1180   16.9100 C.3       1 ROL        -0.0503
     17 C13        31.4860   78.6660   16.4470 C.3       1 ROL        -0.0503
     18 C12        30.4150   77.9020   17.2180 C.3       1 ROL        -0.0226
     19 O2         31.5020   79.4880   21.4880 O.3       1 ROL        -0.3294
     20 C16        31.6980   80.4640   22.5060 C.3       1 ROL         0.0554
     21 H1         32.0714   75.2569   19.9504 H         1 ROL         0.0450
     22 H2         32.0896   78.2513   23.8812 H         1 ROL         0.0493
     23 H3         32.5752   75.8397   24.1695 H         1 ROL         0.0436
     24 H4         32.7904   73.5274   21.1075 H         1 ROL         0.0483
     25 H5         34.4729   74.3595   23.3687 H         1 ROL         0.0526
     26 H6         34.7484   73.0589   22.1607 H         1 ROL         0.0526
     27 H7         31.8546   71.2740   24.0202 H         1 ROL         0.1852
     28 H8         30.9654   72.6012   22.1057 H         1 ROL         0.0544
     29 H9         31.0054   73.7631   23.4750 H         1 ROL         0.0544
     30 H10        30.6296   76.1501   18.5270 H         1 ROL         0.0645
     31 H11        32.4070   75.9846   16.8473 H         1 ROL         0.0294
     32 H12        33.2729   76.5248   18.3254 H         1 ROL         0.0294
     33 H13        33.5010   77.9585   16.0515 H         1 ROL         0.0266
     34 H14        33.3071   78.8090   17.6218 H         1 ROL         0.0266
     35 H15        31.3625   78.5052   15.3659 H         1 ROL         0.0266
     36 H16        31.4179   79.7414   16.6679 H         1 ROL         0.0266
     37 H17        29.7213   78.6027   17.7056 H         1 ROL         0.0294
     38 H18        29.8535   77.2417   16.5407 H         1 ROL         0.0294
     39 H19        31.4282   81.4574   22.1183 H         1 ROL         0.0570
     40 H20        32.7538   80.4651   22.8145 H         1 ROL         0.0570
     41 H21        31.0633   80.2235   23.3716 H         1 ROL         0.0570
@<TRIPOS>BOND
     1    1    2 ar 
     2    1    6 ar 
     3    1    7 1  
     4    2    3 ar 
     5    3    4 ar 
     6    3   13 1  
     7    4    5 ar 
     8    4   19 1  
     9    5    6 ar 
    10    7    8 1  
    11    7   12 1  
    12    8    9 1  
    13    9   10 2  
    14    9   11 am 
    15   11   12 1  
    16   13   14 1  
    17   14   15 1  
    18   14   18 1  
    19   15   16 1  
    20   16   17 1  
    21   17   18 1  
    22   19   20 1  
    23    2   21 1  
    24    5   22 1  
    25    6   23 1  
    26    7   24 1  
    27    8   25 1  
    28    8   26 1  
    29   11   27 1  
    30   12   28 1  
    31   12   29 1  
    32   14   30 1  
    33   15   31 1  
    34   15   32 1  
    35   16   33 1  
    36   16   34 1  
    37   17   35 1  
    38   17   36 1  
    39   18   37 1  
    40   18   38 1  
    41   20   39 1  
    42   20   40 1  
    43   20   41 1  
@<TRIPOS>SUBSTRUCTURE
     1 ROL         1

