### 
### Created by X-TOOL on Mon Sep 10 21:12:51 2018
### 

@<TRIPOS>MOLECULE
1ros_ligand
   59    62     1     0     0
SMALL
GAST_HUCK


@<TRIPOS>ATOM
      1 N1         56.2140   85.1380   10.5060 N.am      1 DEO        -0.1842
      2 C1         56.0110   86.3580    9.8880 C.2       1 DEO         0.2400
      3 C2         54.9390   87.0010   10.6150 C.ar      1 DEO         0.0732
      4 C3         54.5480   86.1570   11.6410 C.ar      1 DEO         0.0732
      5 C4         53.5050   86.5050   12.5340 C.ar      1 DEO        -0.0372
      6 C5         52.8880   87.7740   12.3650 C.ar      1 DEO        -0.0523
      7 C6         53.3030   88.6460   11.3200 C.ar      1 DEO        -0.0523
      8 C7         54.3490   88.2680   10.4290 C.ar      1 DEO        -0.0372
      9 C8         55.3550   84.9500   11.5660 C.2       1 DEO         0.2400
     10 O1         55.3070   83.9810   12.3010 O.2       1 DEO        -0.3670
     11 O2         56.6160   86.7970    8.9170 O.2       1 DEO        -0.3670
     12 C9         57.2320   84.1570   10.0920 C.3       1 DEO         0.0584
     13 C10        56.7110   82.7980    9.5690 C.3       1 DEO        -0.0121
     14 C11        56.0030   82.7640    8.1910 C.3       1 DEO         0.0290
     15 C12        55.7660   81.2980    7.7400 C.3       1 DEO         0.0365
     16 C13        55.5530   81.1130    6.2190 C.2       1 DEO         0.1331
     17 O3         56.5460   81.1010    5.4980 O.2       1 DEO        -0.3796
     18 C14        54.1630   80.9500    5.6990 C.ar      1 DEO         0.0305
     19 C15        53.0620   80.5610    6.5110 C.ar      1 DEO        -0.0447
     20 C16        51.7730   80.4130    5.9630 C.ar      1 DEO        -0.0513
     21 C17        51.5020   80.6430    4.5910 C.ar      1 DEO        -0.0205
     22 C18        52.6090   81.0360    3.7860 C.ar      1 DEO        -0.0513
     23 C19        53.9110   81.1890    4.3200 C.ar      1 DEO        -0.0447
     24 C20        50.1140   80.4530    4.0140 C.ar      1 DEO        -0.0251
     25 C21        49.9150   80.3160    2.6190 C.ar      1 DEO        -0.0605
     26 C22        48.6490   80.1110    2.0540 C.ar      1 DEO        -0.0304
     27 C23        47.4860   80.0270    2.8690 C.ar      1 DEO         0.0937
     28 C24        47.6590   80.1690    4.2680 C.ar      1 DEO        -0.0304
     29 C25        48.9490   80.3770    4.8290 C.ar      1 DEO        -0.0605
     30 O4         46.1750   79.8100    2.4140 O.3       1 DEO        -0.3166
     31 C26        45.9620   79.6540    1.0130 C.3       1 DEO         0.0683
     32 C27        44.4740   79.4240    0.7580 C.3       1 DEO        -0.0370
     33 C28        54.6400   83.5030    8.2170 C.2       1 DEO         0.0401
     34 O5         53.7770   83.2820    9.0340 O.co2     1 DEO        -0.5686
     35 O6         54.5160   84.4310    7.2540 O.co2     1 DEO        -0.5686
     36 H1         53.1886   85.8273   13.3186 H         1 DEO         0.0682
     37 H2         52.0949   88.0801   13.0376 H         1 DEO         0.0662
     38 H3         52.8183   89.6082   11.2003 H         1 DEO         0.0662
     39 H4         54.6791   88.9305    9.6370 H         1 DEO         0.0682
     40 H5         57.8748   83.9557   10.9616 H         1 DEO         0.0572
     41 H6         57.8311   84.6153    9.2914 H         1 DEO         0.0572
     42 H7         55.9958   82.4155   10.3121 H         1 DEO         0.0310
     43 H8         57.5747   82.1196    9.5082 H         1 DEO         0.0310
     44 H9         56.6554   83.2604    7.4576 H         1 DEO         0.0491
     45 H10        54.8725   80.9206    8.2589 H         1 DEO         0.0505
     46 H11        56.6418   80.7027    8.0376 H         1 DEO         0.0505
     47 H12        53.2173   80.3756    7.5677 H         1 DEO         0.0666
     48 H13        50.9596   80.1126    6.6135 H         1 DEO         0.0619
     49 H14        52.4495   81.2240    2.7304 H         1 DEO         0.0619
     50 H15        54.7247   81.4916    3.6708 H         1 DEO         0.0666
     51 H16        50.7756   80.3719    1.9622 H         1 DEO         0.0607
     52 H17        48.5544   80.0149    0.9784 H         1 DEO         0.0550
     53 H18        46.7949   80.1183    4.9206 H         1 DEO         0.0550
     54 H19        49.0478   80.4802    5.9035 H         1 DEO         0.0607
     55 H20        46.5365   78.7905    0.6467 H         1 DEO         0.0612
     56 H21        46.2900   80.5626    0.4868 H         1 DEO         0.0612
     57 H22        44.3015   79.3026   -0.3216 H         1 DEO         0.0256
     58 H23        43.9011   80.2879    1.1260 H         1 DEO         0.0256
     59 H24        44.1476   78.5158    1.2858 H         1 DEO         0.0256
@<TRIPOS>BOND
     1    1    2 am 
     2    1    9 1  
     3    1   12 1  
     4    2    3 1  
     5    2   11 2  
     6    3    4 ar 
     7    3    8 ar 
     8    4    5 ar 
     9    4    9 1  
    10    5    6 ar 
    11    6    7 ar 
    12    7    8 ar 
    13    9   10 2  
    14   12   13 1  
    15   13   14 1  
    16   14   15 1  
    17   14   33 1  
    18   15   16 1  
    19   16   17 2  
    20   16   18 1  
    21   18   19 ar 
    22   18   23 ar 
    23   19   20 ar 
    24   20   21 ar 
    25   21   22 ar 
    26   21   24 1  
    27   22   23 ar 
    28   24   25 ar 
    29   24   29 ar 
    30   25   26 ar 
    31   26   27 ar 
    32   27   28 ar 
    33   27   30 1  
    34   28   29 ar 
    35   30   31 1  
    36   31   32 1  
    37   33   34 ar 
    38   33   35 ar 
    39    5   36 1  
    40    6   37 1  
    41    7   38 1  
    42    8   39 1  
    43   12   40 1  
    44   12   41 1  
    45   13   42 1  
    46   13   43 1  
    47   14   44 1  
    48   15   45 1  
    49   15   46 1  
    50   19   47 1  
    51   20   48 1  
    52   22   49 1  
    53   23   50 1  
    54   25   51 1  
    55   26   52 1  
    56   28   53 1  
    57   29   54 1  
    58   31   55 1  
    59   31   56 1  
    60   32   57 1  
    61   32   58 1  
    62   32   59 1  
@<TRIPOS>SUBSTRUCTURE
     1 DEO         1

