### 
### Created by X-TOOL on Mon Sep 10 21:12:47 2018
### 

@<TRIPOS>MOLECULE
1rpj_ligand
   24    24     1     0     0
SMALL
GAST_HUCK


@<TRIPOS>ATOM
      1 C1'         4.8590    7.1330   10.4580 C.3       1 ALL         0.1854
      2 C2'         5.1900    8.5360   11.0230 C.3       1 ALL         0.1339
      3 C3'         4.7500    8.6290   12.4810 C.3       1 ALL         0.1141
      4 C4'         3.2470    8.3340   12.5700 C.3       1 ALL         0.1119
      5 C5'         2.9950    6.9600   11.9330 C.3       1 ALL         0.1130
      6 C6'         1.5900    6.4550   12.0040 C.3       1 ALL         0.0730
      7 O1'         5.2420    7.0060    9.1070 O.3       1 ALL        -0.3649
      8 O2'         6.5850    8.7610   10.9250 O.3       1 ALL        -0.3841
      9 O3'         5.4730    7.5950   13.2340 O.3       1 ALL        -0.3864
     10 O4'         2.7870    8.2700   13.9250 O.3       1 ALL        -0.3865
     11 O5'         3.4670    6.9210   10.5920 O.3       1 ALL        -0.3407
     12 O6'         0.6840    7.3450   11.2990 O.3       1 ALL        -0.3924
     13 H1          5.3989    6.3763   11.0460 H         1 ALL         0.0935
     14 H2          4.6569    9.2986   10.4363 H         1 ALL         0.0671
     15 H3          4.9686    9.6278   12.8866 H         1 ALL         0.0648
     16 H4          2.6896    9.1136   12.0300 H         1 ALL         0.0647
     17 H5          3.6033    6.2462   12.5079 H         1 ALL         0.0647
     18 H6          1.2833    6.3900   13.0584 H         1 ALL         0.0584
     19 H7          1.5426    5.4560   11.5461 H         1 ALL         0.0584
     20 H8          4.7769    7.6495    8.5853 H         1 ALL         0.2126
     21 H9          6.8490    8.7135   10.0137 H         1 ALL         0.2101
     22 H10         5.2158    7.6322   14.1478 H         1 ALL         0.2100
     23 H11         2.9507    9.1020   14.3535 H         1 ALL         0.2100
     24 H12        -0.2012    7.0050   11.3572 H         1 ALL         0.2095
@<TRIPOS>BOND
     1    1   11 1  
     2    1    7 1  
     3    1    2 1  
     4    2    8 1  
     5    2    3 1  
     6    3    9 1  
     7    3    4 1  
     8    4   10 1  
     9    4    5 1  
    10    5   11 1  
    11    5    6 1  
    12    6   12 1  
    13    1   13 1  
    14    2   14 1  
    15    3   15 1  
    16    4   16 1  
    17    5   17 1  
    18    6   18 1  
    19    6   19 1  
    20    7   20 1  
    21    8   21 1  
    22    9   22 1  
    23   10   23 1  
    24   12   24 1  
@<TRIPOS>SUBSTRUCTURE
     1 ALL         1

