### 
### Created by X-TOOL on Mon Sep 10 21:12:51 2018
### 

@<TRIPOS>MOLECULE
1rq2_ligand
   18    17     1     0     0
SMALL
GAST_HUCK


@<TRIPOS>ATOM
      1 C1        -10.6580   41.9950    4.6430 C.2       1 CIT         0.0371
      2 O1        -11.3460   41.0660    5.1250 O.co2     1 CIT        -0.5690
      3 O2        -10.5770   43.0840    5.2650 O.co2     1 CIT        -0.5690
      4 C2         -9.9550   41.7830    3.3270 C.3       1 CIT         0.0356
      5 C3         -8.4460   41.5450    3.4900 C.3       1 CIT         0.1328
      6 O7         -7.8450   42.6840    4.1630 O.3       1 CIT        -0.3818
      7 C4         -8.2180   40.2660    4.3010 C.3       1 CIT         0.0356
      8 C5         -6.7650   40.0060    4.5800 C.2       1 CIT         0.0371
      9 O3         -6.4660   39.4410    5.6710 O.co2     1 CIT        -0.5690
     10 O4         -5.8950   40.3140    3.7340 O.co2     1 CIT        -0.5690
     11 C6         -7.8990   41.4360    2.0670 C.2       1 CIT         0.0796
     12 O5         -8.0450   40.3900    1.4040 O.co2     1 CIT        -0.5449
     13 O6         -7.3290   42.4020    1.5090 O.co2     1 CIT        -0.5449
     14 H1        -10.1045   42.6750    2.7009 H         1 CIT         0.0452
     15 H2        -10.3972   40.9073    2.8293 H         1 CIT         0.0452
     16 H3         -7.9882   43.4678    3.6457 H         1 CIT         0.2091
     17 H4         -8.6255   39.4144    3.7365 H         1 CIT         0.0452
     18 H5         -8.7491   40.3582    5.2599 H         1 CIT         0.0452
@<TRIPOS>BOND
     1    1    2 ar 
     2    1    3 ar 
     3    1    4 1  
     4    4    5 1  
     5    5    6 1  
     6    5    7 1  
     7    5   11 1  
     8    7    8 1  
     9    8    9 ar 
    10    8   10 ar 
    11   11   12 ar 
    12   11   13 ar 
    13    4   14 1  
    14    4   15 1  
    15    6   16 1  
    16    7   17 1  
    17    7   18 1  
@<TRIPOS>SUBSTRUCTURE
     1 CIT         1

