### 
### Created by X-TOOL on Mon Sep 10 21:12:52 2018
### 

@<TRIPOS>MOLECULE
1rql_ligand
    9     8     1     0     0
SMALL
GAST_HUCK


@<TRIPOS>ATOM
      1 O1         84.8300   -7.4100    8.2160 O.co2     1 VSO        -0.4803
      2 S2         85.7460   -6.3030    8.2720 S.o2      1 VSO        -0.1703
      3 C3         86.5700   -6.3720    6.7510 C.2       1 VSO         0.0079
      4 C4         87.5300   -5.4880    6.4420 C.2       1 VSO        -0.0841
      5 O8         86.7950   -6.4560    9.2190 O.co2     1 VSO        -0.4803
      6 O9         85.0870   -5.0090    8.3100 O.co2     1 VSO        -0.4803
      7 H1         86.3043   -7.1464    6.0329 H         1 VSO         0.0781
      8 H2         88.0365   -5.5483    5.4799 H         1 VSO         0.0547
      9 H3         87.8030   -4.7098    7.1532 H         1 VSO         0.0547
@<TRIPOS>BOND
     1    1    2 ar 
     2    2    3 1  
     3    2    5 ar 
     4    2    6 ar 
     5    3    4 2  
     6    3    7 1  
     7    4    8 1  
     8    4    9 1  
@<TRIPOS>SUBSTRUCTURE
     1 VSO         1

