### 
### Created by X-TOOL on Mon Sep 10 21:12:53 2018
### 

@<TRIPOS>MOLECULE
1rr6_ligand
   34    36     1     0     0
SMALL
GAST_HUCK


@<TRIPOS>ATOM
      1 C9          3.2110   18.4530   26.2170 C.2       1 IMH         0.0057
      2 C8          3.1680   19.4400   27.1920 C.2       1 IMH         0.0223
      3 N7          2.4250   19.1590   28.2330 N.pl3     1 IMH        -0.2895
      4 C5          1.9060   17.8950   27.9780 C.2       1 IMH         0.1348
      5 C6          1.0120   17.0780   28.7820 C.2       1 IMH         0.2413
      6 O6          0.5210   17.3670   29.8700 O.2       1 IMH        -0.4013
      7 N1          0.7010   15.8350   28.1940 N.am      1 IMH        -0.2067
      8 C2          1.1970   15.4030   26.9570 C.2       1 IMH         0.1146
      9 N3          2.0430   16.1750   26.1910 N.2       1 IMH        -0.3199
     10 C4          2.3710   17.4170   26.7510 C.2       1 IMH         0.0184
     11 O5'         1.5720   21.5590   23.5540 O.3       1 IMH        -0.3894
     12 C5'         1.5740   20.2070   23.1250 C.3       1 IMH         0.0894
     13 C4'         2.9830   19.7470   23.0530 C.3       1 IMH         0.0313
     14 N4'         3.6640   19.8410   24.3220 N.4       1 IMH         0.2435
     15 C3'         3.0510   18.3220   22.5980 C.3       1 IMH         0.1317
     16 O3'         4.0010   18.3120   21.5170 O.3       1 IMH        -0.3832
     17 C2'         3.5140   17.5610   23.8110 C.3       1 IMH         0.1327
     18 O2'         4.5560   16.6300   23.4710 O.3       1 IMH        -0.3821
     19 C1'         4.0060   18.5610   24.8960 C.3       1 IMH         0.0244
     20 H1          3.7120   20.3787   27.0981 H         1 IMH         0.0779
     21 H2          2.2606   19.7477   29.0621 H         1 IMH         0.2273
     22 H3          0.0870   15.2224   28.6918 H         1 IMH         0.2519
     23 H4          0.9033   14.4216   26.5876 H         1 IMH         0.1426
     24 H5          2.0578   22.0881   22.9323 H         1 IMH         0.2097
     25 H6          1.1058   20.1303   22.1326 H         1 IMH         0.0614
     26 H7          1.0160   19.5875   23.8426 H         1 IMH         0.0614
     27 H8          3.5109   20.3802   22.3247 H         1 IMH         0.0900
     28 H9          3.0648   20.3294   24.9689 H         1 IMH         0.2029
     29 H10         4.5137   20.3666   24.1886 H         1 IMH         0.2029
     30 H11         2.0755   17.9467   22.2551 H         1 IMH         0.0680
     31 H12         4.0891   17.4272   21.1825 H         1 IMH         0.2102
     32 H13         2.6620   16.9946   24.2152 H         1 IMH         0.0693
     33 H14         5.2955   17.1029   23.1076 H         1 IMH         0.2103
     34 H15         5.0847   18.4522   25.0820 H         1 IMH         0.0961
@<TRIPOS>BOND
     1    1    2 2  
     2    1   10 1  
     3   19    1 1  
     4    2    3 1  
     5    4    3 1  
     6    4    5 1  
     7   10    4 2  
     8    5    6 2  
     9    5    7 am 
    10    8    7 1  
    11    9    8 2  
    12   10    9 1  
    13   12   11 1  
    14   13   12 1  
    15   14   13 1  
    16   13   15 1  
    17   14   19 1  
    18   15   16 1  
    19   15   17 1  
    20   17   18 1  
    21   17   19 1  
    22    2   20 1  
    23    3   21 1  
    24    7   22 1  
    25    8   23 1  
    26   11   24 1  
    27   12   25 1  
    28   12   26 1  
    29   13   27 1  
    30   14   28 1  
    31   14   29 1  
    32   15   30 1  
    33   16   31 1  
    34   17   32 1  
    35   18   33 1  
    36   19   34 1  
@<TRIPOS>SUBSTRUCTURE
     1 IMH         1

