### 
### Created by X-TOOL on Mon Sep 10 21:12:52 2018
### 

@<TRIPOS>MOLECULE
1rri_ligand
   27    29     1     0     0
SMALL
GAST_HUCK


@<TRIPOS>ATOM
      1 N1         33.6210   53.8810   59.9950 N.pl3     1 A45        -0.2818
      2 C2         33.9020   54.6570   61.0760 C.2       1 A45         0.2265
      3 N3         32.8320   55.2340   61.8070 N.am      1 A45        -0.1786
      4 C4         33.0410   56.0220   62.8790 C.2       1 A45         0.2534
      5 O5         31.9550   56.5550   63.5550 O.2       1 A45        -0.3783
      6 C6         34.4390   56.3120   63.3390 C.2       1 A45         0.1610
      7 N7         34.9830   57.0220   64.3210 N.2       1 A45        -0.1391
      8 N8         36.4280   56.8950   64.2220 N.pl3     1 A45        -0.0874
      9 N9         36.6930   56.0340   63.0620 N.2       1 A45        -0.1763
     10 C10        35.5350   55.6770   62.5290 C.2       1 A45         0.0918
     11 N11        35.1740   54.8640   61.4100 N.2       1 A45        -0.3028
     12 C12        37.3970   57.4810   65.0740 C.ar      1 A45         0.1355
     13 C13        37.8380   58.8170   64.8420 C.ar      1 A45        -0.0199
     14 C14        38.8160   59.4120   65.7150 C.ar      1 A45        -0.0615
     15 C15        39.3710   58.6590   66.8000 C.ar      1 A45        -0.0539
     16 C16        38.9310   57.3150   67.0280 C.ar      1 A45         0.0070
     17 C17        37.9480   56.7260   66.1610 C.ar      1 A45        -0.0084
     18 C18        39.4900   56.5200   68.1520 C.2       1 A45         0.0615
     19 O19        39.1090   55.3760   68.3510 O.co2     1 A45        -0.5607
     20 O20        40.4020   57.0410   68.9520 O.co2     1 A45        -0.5607
     21 H1         32.6421   53.7112   59.7234 H         1 A45         0.1896
     22 H2         34.3871   53.4631   59.4479 H         1 A45         0.1896
     23 H3         31.8928   55.0498   61.5172 H         1 A45         0.2488
     24 H4         37.4374   59.3839   64.0094 H         1 A45         0.0614
     25 H5         39.1341   60.4351   65.5505 H         1 A45         0.0608
     26 H6         40.1200   59.1039   67.4451 H         1 A45         0.0596
     27 H7         37.6216   55.7062   66.3297 H         1 A45         0.0627
@<TRIPOS>BOND
     1    1    2 1  
     2    2    3 am 
     3    2   11 2  
     4    3    4 am 
     5    4    5 2  
     6    4    6 1  
     7    6    7 2  
     8    6   10 1  
     9    7    8 1  
    10    8    9 1  
    11    8   12 1  
    12    9   10 2  
    13   10   11 1  
    14   12   13 ar 
    15   12   17 ar 
    16   13   14 ar 
    17   14   15 ar 
    18   15   16 ar 
    19   16   17 ar 
    20   16   18 1  
    21   18   19 ar 
    22   18   20 ar 
    23    1   21 1  
    24    1   22 1  
    25    3   23 1  
    26   13   24 1  
    27   14   25 1  
    28   15   26 1  
    29   17   27 1  
@<TRIPOS>SUBSTRUCTURE
     1 A45         1

