### 
### Created by X-TOOL on Mon Sep 10 21:12:52 2018
### 

@<TRIPOS>MOLECULE
1rrw_ligand
   19    20     1     0     0
SMALL
GAST_HUCK


@<TRIPOS>ATOM
      1 C1         51.2670   45.6840   74.4570 C.3       1 9MG         0.0474
      2 N2         50.0290   46.4900   74.5330 N.pl3     1 9MG        -0.2422
      3 C3         49.6010   47.4500   73.6390 C.2       1 9MG         0.0930
      4 N4         48.4430   47.9600   74.0280 N.2       1 9MG        -0.3236
      5 C5         48.0550   47.3390   75.2220 C.2       1 9MG         0.0925
      6 C6         46.9480   47.4370   76.1020 C.2       1 9MG         0.2135
      7 O7         45.9320   48.3240   75.8400 O.2       1 9MG        -0.4091
      8 N8         46.9150   46.6380   77.2300 N.am      1 9MG        -0.1839
      9 C9         47.9310   45.7480   77.5070 C.2       1 9MG         0.2340
     10 N10        47.8780   44.9530   78.6640 N.pl3     1 9MG        -0.2807
     11 N11        48.9830   45.6350   76.6720 N.2       1 9MG        -0.2765
     12 C12        49.0770   46.3980   75.5520 C.2       1 9MG         0.1132
     13 H1         51.8301   45.9612   73.5536 H         1 9MG         0.0579
     14 H2         51.0072   44.6160   74.4137 H         1 9MG         0.0579
     15 H3         51.8844   45.8754   75.3470 H         1 9MG         0.0579
     16 H4         50.1398   47.7463   72.7402 H         1 9MG         0.1178
     17 H5         46.1391   46.7070   77.8571 H         1 9MG         0.2515
     18 H6         48.6386   44.2891   78.8680 H         1 9MG         0.1897
     19 H7         47.0785   45.0340   79.3083 H         1 9MG         0.1897
@<TRIPOS>BOND
     1    1    2 1  
     2    2    3 1  
     3    2   12 1  
     4    3    4 2  
     5    4    5 1  
     6    5    6 1  
     7    5   12 2  
     8    6    7 2  
     9    6    8 am 
    10    8    9 am 
    11    9   10 1  
    12    9   11 2  
    13   11   12 1  
    14    1   13 1  
    15    1   14 1  
    16    1   15 1  
    17    3   16 1  
    18    8   17 1  
    19   10   18 1  
    20   10   19 1  
@<TRIPOS>SUBSTRUCTURE
     1 9MG         1

