### 
### Created by X-TOOL on Mon Sep 10 21:12:52 2018
### 

@<TRIPOS>MOLECULE
1rry_ligand
   22    22     1     0     0
SMALL
GAST_HUCK


@<TRIPOS>ATOM
      1 C1         51.3450   47.2590   71.5030 C.3       1 204        -0.0374
      2 C2         50.0950   47.8670   72.1010 C.3       1 204         0.0718
      3 O3         49.7930   47.1800   73.3110 O.3       1 204        -0.2843
      4 C4         48.6980   47.5250   74.0390 C.2       1 204         0.2410
      5 O5         47.9600   48.4380   73.6740 O.2       1 204        -0.3799
      6 C6         48.4060   46.7720   75.2910 C.2       1 204         0.1166
      7 C7         49.2530   45.7290   75.7220 C.2       1 204        -0.0023
      8 N8         48.9870   45.0360   76.8640 N.2       1 204        -0.2774
      9 C9         47.9040   45.3210   77.6110 C.2       1 204         0.2524
     10 N10        47.6520   44.5870   78.7770 N.pl3     1 204        -0.2731
     11 N11        47.0600   46.3070   77.2340 N.am      1 204        -0.1748
     12 C12        47.2720   47.0460   76.1100 C.2       1 204         0.2210
     13 O13        46.3850   48.0410   75.7740 O.2       1 204        -0.4100
     14 H1         51.5933   47.7787   70.5658 H         1 204         0.0255
     15 H2         51.1712   46.1927   71.2960 H         1 204         0.0255
     16 H3         52.1792   47.3636   72.2124 H         1 204         0.0255
     17 H4         49.2574   47.7621   71.3958 H         1 204         0.0607
     18 H5         50.2653   48.9330   72.3122 H         1 204         0.0607
     19 H6         50.1326   45.4743   75.1327 H         1 204         0.0929
     20 H7         48.2967   43.8360   79.0622 H         1 204         0.1936
     21 H8         46.8220   44.7982   79.3492 H         1 204         0.1936
     22 H9         46.2563   46.4995   77.7970 H         1 204         0.2582
@<TRIPOS>BOND
     1    1    2 1  
     2    2    3 1  
     3    3    4 1  
     4    4    5 2  
     5    4    6 1  
     6    6    7 2  
     7    6   12 1  
     8    7    8 1  
     9    8    9 2  
    10    9   10 1  
    11    9   11 am 
    12   11   12 am 
    13   12   13 2  
    14    1   14 1  
    15    1   15 1  
    16    1   16 1  
    17    2   17 1  
    18    2   18 1  
    19    7   19 1  
    20   10   20 1  
    21   10   21 1  
    22   11   22 1  
@<TRIPOS>SUBSTRUCTURE
     1 204         1

