### 
### Created by X-TOOL on Mon Sep 10 21:12:52 2018
### 

@<TRIPOS>MOLECULE
1rs2_ligand
   24    25     1     0     0
SMALL
GAST_HUCK


@<TRIPOS>ATOM
      1 N1         48.0840   47.9700   74.0810 N.am      1 209        -0.1494
      2 C2         47.3250   47.7430   75.2340 C.2       1 209         0.3132
      3 C3         47.7940   46.7250   76.1850 C.2       1 209         0.2930
      4 C4         48.9050   46.0440   75.9490 C.2       1 209         0.3297
      5 N5         49.6740   46.3260   74.7110 N.am      1 209        -0.1114
      6 C6         49.2610   47.2860   73.7820 C.2       1 209         0.3743
      7 N7         47.2170   46.2670   77.4540 N.pl3     1 209        -0.2404
      8 C8         48.0480   45.3130   77.9120 C.cat     1 209         0.1896
      9 N9         49.1050   45.0990   77.0690 N.pl3     1 209        -0.2190
     10 N10        47.8650   44.6400   79.0350 N.pl3     1 209        -0.3475
     11 C11        50.9050   45.5810   74.4290 C.3       1 209         0.0805
     12 C15        47.6260   48.9900   73.1150 C.3       1 209         0.0500
     13 O19        49.9130   47.5100   72.7470 O.2       1 209        -0.3578
     14 O20        46.2750   48.3110   75.5490 O.2       1 209        -0.3498
     15 H1         46.3537   46.6060   77.9019 H         1 209         0.2290
     16 H2         49.8743   44.4247   77.1889 H         1 209         0.2222
     17 H3         47.0501   44.8443   79.6309 H         1 209         0.1676
     18 H4         48.5373   43.9113   79.3141 H         1 209         0.1676
     19 H5         51.0972   44.8684   75.2446 H         1 209         0.0655
     20 H6         51.7482   46.2828   74.3490 H         1 209         0.0655
     21 H7         50.7931   45.0328   73.4819 H         1 209         0.0655
     22 H8         46.6925   49.4452   73.4774 H         1 209         0.0540
     23 H9         47.4478   48.5163   72.1384 H         1 209         0.0540
     24 H10        48.3966   49.7679   73.0101 H         1 209         0.0540
@<TRIPOS>BOND
     1    1    2 am 
     2    1    6 am 
     3    1   12 1  
     4    2    3 1  
     5    2   14 2  
     6    3    4 2  
     7    3    7 1  
     8    4    5 am 
     9    4    9 1  
    10    5    6 am 
    11    5   11 1  
    12    6   13 2  
    13    7    8 ar 
    14    8    9 ar 
    15    8   10 ar 
    16    7   15 1  
    17    9   16 1  
    18   10   17 1  
    19   10   18 1  
    20   11   19 1  
    21   11   20 1  
    22   11   21 1  
    23   12   22 1  
    24   12   23 1  
    25   12   24 1  
@<TRIPOS>SUBSTRUCTURE
     1 209         1

