### 
### Created by X-TOOL on Mon Sep 10 21:12:52 2018
### 

@<TRIPOS>MOLECULE
1rs4_ligand
   42    45     1     0     0
SMALL
GAST_HUCK


@<TRIPOS>ATOM
      1 N1         47.4820   45.1100   78.7760 N.pl3     1 45P        -0.2818
      2 C2         47.8440   45.6230   77.5690 C.2       1 45P         0.2265
      3 N3         46.9410   46.4500   76.8920 N.am      1 45P        -0.1786
      4 C4         47.2390   46.9750   75.7190 C.2       1 45P         0.2534
      5 O5         46.3340   47.7820   75.0800 O.2       1 45P        -0.3783
      6 C6         48.5500   46.6950   75.0920 C.2       1 45P         0.1610
      7 N7         49.1380   47.0530   73.9660 N.2       1 45P        -0.1391
      8 N8         50.4500   46.4380   73.9230 N.pl3     1 45P        -0.0869
      9 N9         50.5800   45.6740   75.1490 N.2       1 45P        -0.1763
     10 C10        49.4700   45.8150   75.8480 C.2       1 45P         0.0918
     11 N11        49.0340   45.3210   77.0830 N.2       1 45P        -0.3028
     12 C12        51.4110   46.5590   72.8920 C.ar      1 45P         0.1374
     13 C13        51.9640   47.8100   72.5940 C.ar      1 45P        -0.0182
     14 C14        52.9150   47.9300   71.5730 C.ar      1 45P        -0.0594
     15 C15        53.3120   46.8000   70.8510 C.ar      1 45P        -0.0483
     16 C16        52.7590   45.5490   71.1480 C.ar      1 45P         0.0468
     17 C17        51.8090   45.4290   72.1690 C.ar      1 45P        -0.0027
     18 C18        53.1800   44.3530   70.3840 C.2       1 45P         0.2054
     19 O19        53.8670   44.4790   69.3730 O.2       1 45P        -0.3845
     20 N20        52.8140   43.1410   70.7930 N.am      1 45P        -0.2749
     21 C21        53.2900   41.9490   70.0760 C.3       1 45P         0.0640
     22 C22        54.7970   41.9820   69.9900 C.ar      1 45P        -0.0201
     23 C23        55.4280   41.9550   68.7400 C.ar      1 45P        -0.0444
     24 C24        56.8240   41.9870   68.6590 C.ar      1 45P         0.0344
     25 CL1        57.6080   41.9530   67.1060 Cl        1 45P        -0.0725
     26 C26        57.5920   42.0450   69.8300 C.ar      1 45P        -0.0409
     27 C27        56.9620   42.0720   71.0790 C.ar      1 45P         0.0344
     28 CL2        57.9150   42.1450   72.5330 Cl        1 45P        -0.0725
     29 C29        55.5640   42.0400   71.1600 C.ar      1 45P        -0.0444
     30 H1         46.5584   45.3325   79.1741 H         1 45P         0.1896
     31 H2         48.1315   44.4992   79.2917 H         1 45P         0.1896
     32 H3         46.0521   46.6470   77.3055 H         1 45P         0.2488
     33 H4         51.6561   48.6859   73.1536 H         1 45P         0.0628
     34 H5         53.3434   48.8987   71.3424 H         1 45P         0.0613
     35 H6         54.0484   46.8930   70.0610 H         1 45P         0.0614
     36 H7         51.3813   44.4600   72.3997 H         1 45P         0.0645
     37 H8         52.2154   43.0409   71.5878 H         1 45P         0.1872
     38 H9         52.8650   41.9372   69.0615 H         1 45P         0.0683
     39 H10        52.9733   41.0450   70.6167 H         1 45P         0.0683
     40 H11        54.8340   41.9093   67.8344 H         1 45P         0.0564
     41 H12        58.6740   42.0689   69.7680 H         1 45P         0.0571
     42 H13        55.0762   42.0601   72.1278 H         1 45P         0.0564
@<TRIPOS>BOND
     1    1    2 1  
     2    2    3 am 
     3    2   11 2  
     4    3    4 am 
     5    4    5 2  
     6    4    6 1  
     7    6    7 2  
     8    6   10 1  
     9    7    8 1  
    10    8    9 1  
    11    8   12 1  
    12    9   10 2  
    13   10   11 1  
    14   12   13 ar 
    15   12   17 ar 
    16   13   14 ar 
    17   14   15 ar 
    18   15   16 ar 
    19   16   17 ar 
    20   16   18 1  
    21   18   19 2  
    22   18   20 am 
    23   20   21 1  
    24   21   22 1  
    25   22   23 ar 
    26   22   29 ar 
    27   23   24 ar 
    28   24   25 1  
    29   24   26 ar 
    30   26   27 ar 
    31   27   28 1  
    32   27   29 ar 
    33    1   30 1  
    34    1   31 1  
    35    3   32 1  
    36   13   33 1  
    37   14   34 1  
    38   15   35 1  
    39   17   36 1  
    40   20   37 1  
    41   21   38 1  
    42   21   39 1  
    43   23   40 1  
    44   26   41 1  
    45   29   42 1  
@<TRIPOS>SUBSTRUCTURE
     1 45P         1

