### 
### Created by X-TOOL on Mon Sep 10 21:12:52 2018
### 

@<TRIPOS>MOLECULE
1rsd_ligand
   57    61     1     0     0
SMALL
GAST_HUCK


@<TRIPOS>ATOM
      1 N1         48.2430   44.6850   78.7850 N.pl3     1 PSB        -0.2818
      2 C2         48.3170   45.4170   77.4700 C.2       1 PSB         0.2265
      3 N3         47.3040   46.3170   77.1120 N.am      1 PSB        -0.1786
      4 C4         47.3470   47.0620   75.9270 C.2       1 PSB         0.2534
      5 O5         46.3910   47.8580   75.6950 O.2       1 PSB        -0.3783
      6 C6         48.5130   46.9330   74.9660 C.2       1 PSB         0.1610
      7 N7         48.9810   47.4780   73.6750 N.2       1 PSB        -0.1391
      8 N8         50.2140   46.7670   73.5420 N.pl3     1 PSB        -0.0869
      9 N9         50.3260   45.9270   74.6740 N.2       1 PSB        -0.1763
     10 C10        49.4970   45.9720   75.4050 C.2       1 PSB         0.0918
     11 N11        49.3470   45.2570   76.6770 N.2       1 PSB        -0.3028
     12 C12        51.2030   46.7870   72.6690 C.ar      1 PSB         0.1374
     13 C13        52.1730   47.8280   72.7710 C.ar      1 PSB        -0.0182
     14 C14        53.3540   47.7160   71.9930 C.ar      1 PSB        -0.0594
     15 C15        53.5240   46.5660   71.1660 C.ar      1 PSB        -0.0483
     16 C16        52.4720   45.5590   71.0530 C.ar      1 PSB         0.0468
     17 C17        51.3170   45.7320   71.8230 C.ar      1 PSB        -0.0027
     18 C18        52.6110   44.3540   70.3090 C.2       1 PSB         0.2053
     19 O19        51.6390   43.5080   70.1400 O.2       1 PSB        -0.3845
     20 N20        53.7350   44.0520   70.0400 N.am      1 PSB        -0.2759
     21 C21        53.7690   42.5900   69.6760 C.3       1 PSB         0.0626
     22 C22        55.1120   42.0140   70.1290 C.ar      1 PSB        -0.0065
     23 C23        55.3290   42.4320   71.5760 C.ar      1 PSB        -0.0638
     24 C24        56.4210   41.9820   72.3490 C.ar      1 PSB        -0.0752
     25 C25        57.3480   41.1540   71.8140 C.ar      1 PSB        -0.0744
     26 C26        57.2110   40.7400   70.4340 C.ar      1 PSB        -0.0542
     27 C27        56.0020   41.2260   69.5770 C.ar      1 PSB         0.0324
     28 S28        55.7750   40.7290   67.9540 S.3       1 PSB        -0.0524
     29 C29        57.2870   40.3620   67.2420 C.ar      1 PSB         0.0326
     30 C30        58.2910   39.6600   67.9890 C.ar      1 PSB        -0.0542
     31 C31        59.5060   39.3570   67.4040 C.ar      1 PSB        -0.0744
     32 C32        59.7540   39.7410   66.0470 C.ar      1 PSB        -0.0752
     33 C33        58.7450   40.4490   65.3030 C.ar      1 PSB        -0.0635
     34 C34        57.5180   40.7510   65.9140 C.ar      1 PSB        -0.0032
     35 C35        56.4090   41.5080   65.1400 C.3       1 PSB         0.0768
     36 O36        56.5140   42.8980   65.3220 O.3       1 PSB        -0.3837
     37 H1         47.4293   44.8166   79.4026 H         1 PSB         0.1896
     38 H2         49.0061   44.0530   79.0663 H         1 PSB         0.1896
     39 H3         46.5222   46.4313   77.7250 H         1 PSB         0.2488
     40 H4         52.0125   48.6788   73.4232 H         1 PSB         0.0628
     41 H5         54.1128   48.4895   72.0263 H         1 PSB         0.0613
     42 H6         54.4476   46.4376   70.6133 H         1 PSB         0.0614
     43 H7         50.5060   45.0172   71.7432 H         1 PSB         0.0645
     44 H8         54.5230   44.6675   70.0540 H         1 PSB         0.1870
     45 H9         53.6632   42.4751   68.5872 H         1 PSB         0.0669
     46 H10        52.9478   42.0614   70.1821 H         1 PSB         0.0669
     47 H11        54.6131   43.1053   72.0335 H         1 PSB         0.0539
     48 H12        56.5178   42.3025   73.3800 H         1 PSB         0.0543
     49 H13        58.1826   40.8052   72.4114 H         1 PSB         0.0542
     50 H14        57.9548   40.0867   69.9924 H         1 PSB         0.0549
     51 H15        58.0962   39.3667   69.0142 H         1 PSB         0.0549
     52 H16        60.2671   38.8315   67.9694 H         1 PSB         0.0542
     53 H17        60.7016   39.4986   65.5798 H         1 PSB         0.0543
     54 H18        58.9317   40.7469   64.2776 H         1 PSB         0.0539
     55 H19        55.4264   41.1727   65.5033 H         1 PSB         0.0707
     56 H20        56.5010   41.2795   64.0679 H         1 PSB         0.0707
     57 H21        55.8227   43.3329   64.8368 H         1 PSB         0.2124
@<TRIPOS>BOND
     1    1    2 1  
     2    2    3 am 
     3    2   11 2  
     4    3    4 am 
     5    4    5 2  
     6    4    6 1  
     7    6    7 2  
     8    6   10 1  
     9    7    8 1  
    10    8    9 1  
    11    8   12 1  
    12    9   10 2  
    13   10   11 1  
    14   12   13 ar 
    15   12   17 ar 
    16   13   14 ar 
    17   14   15 ar 
    18   15   16 ar 
    19   16   17 ar 
    20   16   18 1  
    21   18   19 2  
    22   18   20 am 
    23   20   21 1  
    24   21   22 1  
    25   22   23 ar 
    26   22   27 ar 
    27   23   24 ar 
    28   24   25 ar 
    29   25   26 ar 
    30   26   27 ar 
    31   27   28 1  
    32   28   29 1  
    33   29   30 ar 
    34   29   34 ar 
    35   30   31 ar 
    36   31   32 ar 
    37   32   33 ar 
    38   33   34 ar 
    39   34   35 1  
    40   35   36 1  
    41    1   37 1  
    42    1   38 1  
    43    3   39 1  
    44   13   40 1  
    45   14   41 1  
    46   15   42 1  
    47   17   43 1  
    48   20   44 1  
    49   21   45 1  
    50   21   46 1  
    51   23   47 1  
    52   24   48 1  
    53   25   49 1  
    54   26   50 1  
    55   30   51 1  
    56   31   52 1  
    57   32   53 1  
    58   33   54 1  
    59   35   55 1  
    60   35   56 1  
    61   36   57 1  
@<TRIPOS>SUBSTRUCTURE
     1 PSB         1

