### 
### Created by X-TOOL on Mon Sep 10 21:12:52 2018
### 

@<TRIPOS>MOLECULE
1rsi_ligand
   23    24     1     0     0
SMALL
GAST_HUCK


@<TRIPOS>ATOM
      1 N1         47.8010   44.9010   78.9940 N.pl3     1 977        -0.2756
      2 C2         47.8660   45.6470   77.8720 C.2       1 977         0.2448
      3 N3         48.9410   45.5550   77.0970 N.2       1 977        -0.2854
      4 C4         49.0550   46.3020   75.9260 C.2       1 977         0.0183
      5 C5         48.0250   47.1780   75.5140 C.2       1 977         0.0683
      6 BR6        48.1460   48.2120   73.8810 Br        1 977        -0.0759
      7 C7         46.8040   47.2640   76.4030 C.2       1 977         0.2047
      8 O8         45.8350   48.0110   76.1340 O.2       1 977        -0.4160
      9 N9         46.8000   46.4920   77.5330 N.am      1 977        -0.1801
     10 C10        50.2730   46.1180   75.1110 C.ar      1 977        -0.0028
     11 C11        51.2510   47.1380   75.0150 C.ar      1 977        -0.0472
     12 C12        52.3990   46.9520   74.2010 C.ar      1 977        -0.0564
     13 C13        52.5650   45.7410   73.4750 C.ar      1 977        -0.0575
     14 C14        51.5910   44.7120   73.5740 C.ar      1 977        -0.0564
     15 C15        50.4480   44.8940   74.3850 C.ar      1 977        -0.0472
     16 H1         48.5829   44.2794   79.2452 H         1 977         0.1923
     17 H2         46.9694   44.9530   79.5995 H         1 977         0.1923
     18 H3         46.0064   46.5322   78.1401 H         1 977         0.2557
     19 H4         51.1225   48.0634   75.5647 H         1 977         0.0665
     20 H5         53.1482   47.7325   74.1330 H         1 977         0.0629
     21 H6         53.4362   45.6028   72.8450 H         1 977         0.0653
     22 H7         51.7245   43.7858   73.0268 H         1 977         0.0629
     23 H8         49.7042   44.1089   74.4581 H         1 977         0.0665
@<TRIPOS>BOND
     1    1    2 1  
     2    2    3 2  
     3    2    9 am 
     4    3    4 1  
     5    4    5 2  
     6    4   10 1  
     7    5    6 1  
     8    5    7 1  
     9    7    8 2  
    10    7    9 am 
    11   10   11 ar 
    12   10   15 ar 
    13   11   12 ar 
    14   12   13 ar 
    15   13   14 ar 
    16   14   15 ar 
    17    1   16 1  
    18    1   17 1  
    19    9   18 1  
    20   11   19 1  
    21   12   20 1  
    22   13   21 1  
    23   14   22 1  
    24   15   23 1  
@<TRIPOS>SUBSTRUCTURE
     1 977         1

