### 
### Created by X-TOOL on Mon Sep 10 21:12:46 2018
### 

@<TRIPOS>MOLECULE
1rt1_ligand
   44    45     1     0     0
SMALL
GAST_HUCK


@<TRIPOS>ATOM
      1 C1         -1.0830  -33.7260   26.7730 C.ar      1 MKC        -0.0270
      2 C2         -1.5740  -33.1070   27.9140 C.ar      1 MKC        -0.0578
      3 C3         -0.7970  -32.1960   28.6140 C.ar      1 MKC        -0.0681
      4 C4          0.4880  -31.8870   28.1790 C.ar      1 MKC        -0.0684
      5 C5          0.9870  -32.4870   27.0450 C.ar      1 MKC        -0.0681
      6 C6          0.2040  -33.4020   26.3410 C.ar      1 MKC        -0.0578
      7 C7         -1.8470  -34.8860   24.6220 C.2       1 MKC         0.0813
      8 N8         -2.6800  -34.0170   23.9500 N.am      1 MKC        -0.1669
      9 C9         -2.8330  -34.0570   22.5710 C.2       1 MKC         0.3263
     10 O9         -3.6270  -33.3340   21.9680 O.2       1 MKC        -0.3844
     11 N10        -2.0840  -34.9970   21.9110 N.am      1 MKC        -0.1891
     12 C11        -1.2040  -35.8940   22.4960 C.2       1 MKC         0.1803
     13 O11        -0.5470  -36.6700   21.8100 O.2       1 MKC        -0.4175
     14 C12        -1.1190  -35.8150   23.9210 C.2       1 MKC         0.0228
     15 C13        -1.8560  -34.8520   26.1390 C.3       1 MKC         0.0424
     16 C14        -0.2140  -36.8770   24.5210 C.3       1 MKC        -0.0325
     17 C15        -0.9370  -38.0870   25.0730 C.3       1 MKC        -0.0618
     18 C16         0.8910  -36.3690   25.4020 C.3       1 MKC        -0.0618
     19 C17        -3.3510  -32.9190   24.6740 C.3       1 MKC         0.1628
     20 O17        -4.4930  -33.3780   25.3960 O.3       1 MKC        -0.3510
     21 C18        -5.7050  -33.5160   24.6380 C.3       1 MKC         0.0479
     22 C19        -6.8360  -34.2140   25.3000 C.3       1 MKC        -0.0415
     23 H1         -2.5745  -33.3378   28.2615 H         1 MKC         0.0562
     24 H2         -1.1930  -31.7221   29.5049 H         1 MKC         0.0600
     25 H3          1.0935  -31.1770   28.7306 H         1 MKC         0.0561
     26 H4          1.9866  -32.2489   26.6997 H         1 MKC         0.0600
     27 H5          0.6006  -33.8678   25.4461 H         1 MKC         0.0562
     28 H6         -2.1816  -35.0392   20.9167 H         1 MKC         0.2251
     29 H7         -2.9023  -34.7709   26.4687 H         1 MKC         0.0641
     30 H8         -1.4300  -35.7995   26.5005 H         1 MKC         0.0641
     31 H9          0.3215  -37.2743   23.6462 H         1 MKC         0.0329
     32 H10        -0.2036  -38.7966   25.4836 H         1 MKC         0.0241
     33 H11        -1.5062  -38.5733   24.2671 H         1 MKC         0.0241
     34 H12        -1.6265  -37.7704   25.8695 H         1 MKC         0.0241
     35 H13         1.3624  -35.4938   24.9311 H         1 MKC         0.0241
     36 H14         1.6427  -37.1601   25.5405 H         1 MKC         0.0241
     37 H15         0.4774  -36.0810   26.3797 H         1 MKC         0.0241
     38 H16        -3.6718  -32.1578   23.9477 H         1 MKC         0.0918
     39 H17        -2.6381  -32.4723   25.3827 H         1 MKC         0.0918
     40 H18        -5.4619  -34.0729   23.7211 H         1 MKC         0.0558
     41 H19        -6.0480  -32.5050   24.3729 H         1 MKC         0.0558
     42 H20        -7.6958  -34.2506   24.6148 H         1 MKC         0.0252
     43 H21        -7.1182  -33.6703   26.2136 H         1 MKC         0.0252
     44 H22        -6.5320  -35.2382   25.5619 H         1 MKC         0.0252
@<TRIPOS>BOND
     1    1    2 ar 
     2    1    6 ar 
     3   15    1 1  
     4    2    3 ar 
     5    3    4 ar 
     6    5    4 ar 
     7    6    5 ar 
     8    7    8 1  
     9    7   14 2  
    10    7   15 1  
    11    8    9 am 
    12    8   19 1  
    13    9   10 2  
    14    9   11 am 
    15   11   12 am 
    16   12   13 2  
    17   12   14 1  
    18   14   16 1  
    19   16   17 1  
    20   16   18 1  
    21   19   20 1  
    22   20   21 1  
    23   21   22 1  
    24    2   23 1  
    25    3   24 1  
    26    4   25 1  
    27    5   26 1  
    28    6   27 1  
    29   11   28 1  
    30   15   29 1  
    31   15   30 1  
    32   16   31 1  
    33   17   32 1  
    34   17   33 1  
    35   17   34 1  
    36   18   35 1  
    37   18   36 1  
    38   18   37 1  
    39   19   38 1  
    40   19   39 1  
    41   21   40 1  
    42   21   41 1  
    43   22   42 1  
    44   22   43 1  
    45   22   44 1  
@<TRIPOS>SUBSTRUCTURE
     1 MKC         1

