### 
### Created by X-TOOL on Mon Sep 10 21:12:46 2018
### 

@<TRIPOS>MOLECULE
1rt2_ligand
   51    53     1     0     0
SMALL
GAST_HUCK


@<TRIPOS>ATOM
      1 C1         -1.2100  -34.5120   26.5980 C.ar      1 TNK        -0.0270
      2 C2         -1.7060  -33.8430   27.7000 C.ar      1 TNK        -0.0578
      3 C3         -0.9010  -32.9710   28.4240 C.ar      1 TNK        -0.0681
      4 C4          0.4100  -32.7590   28.0510 C.ar      1 TNK        -0.0684
      5 C5          0.9210  -33.4170   26.9480 C.ar      1 TNK        -0.0681
      6 C6          0.1100  -34.2910   26.2230 C.ar      1 TNK        -0.0578
      7 C7         -1.8060  -35.5930   24.3900 C.2       1 TNK         0.0813
      8 N8         -2.5730  -34.8770   23.5310 N.am      1 TNK        -0.1667
      9 C9         -2.4700  -35.0290   22.1300 C.2       1 TNK         0.3264
     10 O9         -3.1430  -34.4090   21.3230 O.2       1 TNK        -0.3844
     11 N10        -1.5470  -35.9270   21.6820 N.am      1 TNK        -0.1891
     12 C11        -0.7180  -36.6810   22.4670 C.2       1 TNK         0.1803
     13 O11         0.0850  -37.4310   21.9230 O.2       1 TNK        -0.4175
     14 C12        -0.8960  -36.4660   23.9180 C.2       1 TNK         0.0228
     15 C13        -2.0670  -35.4850   25.8710 C.3       1 TNK         0.0424
     16 C14        -0.0190  -37.2660   24.8480 C.3       1 TNK        -0.0325
     17 C15        -0.5780  -38.6370   25.1270 C.3       1 TNK        -0.0618
     18 C16         1.4560  -37.2920   24.4280 C.3       1 TNK        -0.0618
     19 C17        -3.5170  -33.9150   24.0820 C.3       1 TNK         0.1652
     20 O17        -4.7760  -34.1070   23.5020 O.3       1 TNK        -0.3380
     21 C18        -5.9090  -33.8880   24.3300 C.3       1 TNK         0.0847
     22 C19        -6.9890  -34.8930   24.1830 C.ar      1 TNK        -0.0174
     23 C20        -6.8960  -35.8680   23.1900 C.ar      1 TNK        -0.0581
     24 C21        -7.8420  -36.8520   23.0770 C.ar      1 TNK        -0.0685
     25 C22        -8.9070  -36.8820   23.9580 C.ar      1 TNK        -0.0687
     26 C23        -9.0200  -35.9140   24.9510 C.ar      1 TNK        -0.0685
     27 C24        -8.0580  -34.9180   25.0590 C.ar      1 TNK        -0.0581
     28 H1         -2.7347  -33.9997   28.0037 H         1 TNK         0.0562
     29 H2         -1.3059  -32.4546   29.2868 H         1 TNK         0.0600
     30 H3          1.0357  -32.0805   28.6194 H         1 TNK         0.0561
     31 H4          1.9496  -33.2544   26.6468 H         1 TNK         0.0600
     32 H5          0.5141  -34.8034   25.3574 H         1 TNK         0.0562
     33 H6         -1.4691  -36.0450   20.6920 H         1 TNK         0.2251
     34 H7         -3.1159  -35.1842   26.0101 H         1 TNK         0.0641
     35 H8         -1.9079  -36.4777   26.3173 H         1 TNK         0.0641
     36 H9         -0.0419  -36.7328   25.8098 H         1 TNK         0.0329
     37 H10         0.0970  -39.1766   25.8075 H         1 TNK         0.0241
     38 H11        -0.6698  -39.1946   24.1833 H         1 TNK         0.0241
     39 H12        -1.5693  -38.5408   25.5940 H         1 TNK         0.0241
     40 H13         1.8018  -36.2649   24.2399 H         1 TNK         0.0241
     41 H14         1.5657  -37.8895   23.5110 H         1 TNK         0.0241
     42 H15         2.0583  -37.7402   25.2319 H         1 TNK         0.0241
     43 H16        -3.1670  -32.8945   23.8673 H         1 TNK         0.0920
     44 H17        -3.5901  -34.0562   25.1704 H         1 TNK         0.0920
     45 H18        -6.3256  -32.8997   24.0859 H         1 TNK         0.0725
     46 H19        -5.5741  -33.8962   25.3777 H         1 TNK         0.0725
     47 H20        -6.0625  -35.8467   22.4973 H         1 TNK         0.0557
     48 H21        -7.7561  -37.6036   22.3006 H         1 TNK         0.0599
     49 H22        -9.6557  -37.6615   23.8749 H         1 TNK         0.0559
     50 H23        -9.8573  -35.9371   25.6391 H         1 TNK         0.0599
     51 H24        -8.1454  -34.1608   25.8297 H         1 TNK         0.0557
@<TRIPOS>BOND
     1    1    2 ar 
     2    1    6 ar 
     3   15    1 1  
     4    2    3 ar 
     5    3    4 ar 
     6    5    4 ar 
     7    6    5 ar 
     8    7    8 1  
     9    7   14 2  
    10    7   15 1  
    11    8    9 am 
    12    8   19 1  
    13    9   10 2  
    14    9   11 am 
    15   11   12 am 
    16   12   13 2  
    17   12   14 1  
    18   14   16 1  
    19   16   17 1  
    20   16   18 1  
    21   19   20 1  
    22   20   21 1  
    23   21   22 1  
    24   22   23 ar 
    25   22   27 ar 
    26   23   24 ar 
    27   24   25 ar 
    28   25   26 ar 
    29   26   27 ar 
    30    2   28 1  
    31    3   29 1  
    32    4   30 1  
    33    5   31 1  
    34    6   32 1  
    35   11   33 1  
    36   15   34 1  
    37   15   35 1  
    38   16   36 1  
    39   17   37 1  
    40   17   38 1  
    41   17   39 1  
    42   18   40 1  
    43   18   41 1  
    44   18   42 1  
    45   19   43 1  
    46   19   44 1  
    47   21   45 1  
    48   21   46 1  
    49   23   47 1  
    50   24   48 1  
    51   25   49 1  
    52   26   50 1  
    53   27   51 1  
@<TRIPOS>SUBSTRUCTURE
     1 TNK         1

