### 
### Created by X-TOOL on Mon Sep 10 21:12:53 2018
### 

@<TRIPOS>MOLECULE
1rt9_ligand
   34    36     1     0     0
SMALL
GAST_HUCK


@<TRIPOS>ATOM
      1 O5'         1.9690   21.5960   23.5140 O.3       1 IMH        -0.3894
      2 C5'         1.8330   20.2210   23.1900 C.3       1 IMH         0.0894
      3 C4'         3.1680   19.5870   23.2690 C.3       1 IMH         0.0313
      4 N4'         3.7740   19.7160   24.5680 N.4       1 IMH         0.2435
      5 C3'         3.0670   18.1310   22.9340 C.3       1 IMH         0.1317
      6 O3'         3.8370   17.9750   21.7320 O.3       1 IMH        -0.3832
      7 C2'         3.6800   17.4240   24.1050 C.3       1 IMH         0.1327
      8 O2'         4.8190   16.6650   23.6690 O.3       1 IMH        -0.3821
      9 C1'         4.1040   18.4620   25.1840 C.3       1 IMH         0.0244
     10 C9          3.2740   18.3960   26.4820 C.2       1 IMH         0.0057
     11 C8          3.1840   19.4330   27.4110 C.2       1 IMH         0.0223
     12 N7          2.4170   19.1890   28.4370 N.pl3     1 IMH        -0.2895
     13 C5          1.9350   17.9010   28.2310 C.2       1 IMH         0.1348
     14 C6          1.0370   17.1220   29.0360 C.2       1 IMH         0.2413
     15 O6          0.5190   17.4600   30.0930 O.2       1 IMH        -0.4013
     16 N1          0.7700   15.8470   28.5070 N.am      1 IMH        -0.2067
     17 C2          1.3060   15.3630   27.3090 C.2       1 IMH         0.1146
     18 N3          2.1550   16.1010   26.5330 N.2       1 IMH        -0.3199
     19 C4          2.4360   17.3720   27.0380 C.2       1 IMH         0.0184
     20 H1          1.1185   22.0168   23.4674 H         1 IMH         0.2097
     21 H2          1.4326   20.1175   22.1707 H         1 IMH         0.0614
     22 H3          1.1495   19.7373   23.9033 H         1 IMH         0.0614
     23 H4          3.8215   20.0773   22.5324 H         1 IMH         0.0900
     24 H5          3.1315   20.2060   25.1706 H         1 IMH         0.2029
     25 H6          4.6207   20.2543   24.4710 H         1 IMH         0.2029
     26 H7          2.0276   17.8058   22.7793 H         1 IMH         0.0680
     27 H8          4.7352   18.2369   21.8964 H         1 IMH         0.2102
     28 H9          2.9381   16.7384   24.5403 H         1 IMH         0.0693
     29 H10         5.4597   17.2508   23.2831 H         1 IMH         0.2103
     30 H11         5.1763   18.3732   25.4128 H         1 IMH         0.0961
     31 H12         3.7148   20.3760   27.2884 H         1 IMH         0.0779
     32 H13         2.2124   19.8150   29.2289 H         1 IMH         0.2273
     33 H14         0.1568   15.2469   29.0208 H         1 IMH         0.2519
     34 H15         1.0364   14.3598   26.9822 H         1 IMH         0.1426
@<TRIPOS>BOND
     1    1    2 1  
     2    2    3 1  
     3    3    4 1  
     4    3    5 1  
     5    4    9 1  
     6    5    6 1  
     7    5    7 1  
     8    7    8 1  
     9    7    9 1  
    10    9   10 1  
    11   10   11 2  
    12   10   19 1  
    13   11   12 1  
    14   12   13 1  
    15   13   14 1  
    16   13   19 2  
    17   14   15 2  
    18   14   16 am 
    19   16   17 1  
    20   17   18 2  
    21   18   19 1  
    22    1   20 1  
    23    2   21 1  
    24    2   22 1  
    25    3   23 1  
    26    4   24 1  
    27    4   25 1  
    28    5   26 1  
    29    6   27 1  
    30    7   28 1  
    31    8   29 1  
    32    9   30 1  
    33   11   31 1  
    34   12   32 1  
    35   16   33 1  
    36   17   34 1  
@<TRIPOS>SUBSTRUCTURE
     1 IMH         1

