### 
### Created by X-TOOL on Mon Sep 10 21:12:45 2018
### 

@<TRIPOS>MOLECULE
1rtf_ligand
   18    18     1     0     0
SMALL
GAST_HUCK


@<TRIPOS>ATOM
      1 C1         -6.9210   31.2060   33.8930 C.ar      1 BEN         0.0260
      2 C2         -8.1890   30.8360   34.3440 C.ar      1 BEN        -0.0565
      3 C3         -8.3350   29.8630   35.3420 C.ar      1 BEN        -0.0618
      4 C4         -7.2060   29.2540   35.8930 C.ar      1 BEN        -0.0618
      5 C5         -5.9320   29.6180   35.4450 C.ar      1 BEN        -0.0618
      6 C6         -5.7940   30.5890   34.4500 C.ar      1 BEN        -0.0565
      7 C          -6.7670   32.2490   32.8590 C.cat     1 BEN         0.2356
      8 N1         -5.5700   32.6410   32.4970 N.pl3     1 BEN        -0.2721
      9 N2         -7.8240   32.7850   32.2990 N.pl3     1 BEN        -0.2721
     10 H1         -9.0686   31.3054   33.9186 H         1 BEN         0.0617
     11 H2         -9.3242   29.5833   35.6860 H         1 BEN         0.0618
     12 H3         -7.3164   28.5015   36.6655 H         1 BEN         0.0618
     13 H4         -5.0526   29.1472   35.8694 H         1 BEN         0.0618
     14 H5         -4.8046   30.8676   34.1057 H         1 BEN         0.0617
     15 H6         -5.4625   33.3685   31.7758 H         1 BEN         0.3181
     16 H7         -4.7367   32.2216   32.9337 H         1 BEN         0.3181
     17 H8         -8.7666   32.4798   32.5806 H         1 BEN         0.3181
     18 H9         -7.7120   33.5114   31.5774 H         1 BEN         0.3181
@<TRIPOS>BOND
     1    1    2 ar 
     2    1    6 ar 
     3    1    7 1  
     4    2    3 ar 
     5    3    4 ar 
     6    4    5 ar 
     7    5    6 ar 
     8    7    8 ar 
     9    7    9 ar 
    10    2   10 1  
    11    3   11 1  
    12    4   12 1  
    13    5   13 1  
    14    6   14 1  
    15    8   15 1  
    16    8   16 1  
    17    9   17 1  
    18    9   18 1  
@<TRIPOS>SUBSTRUCTURE
     1 BEN         1

