### 
### Created by X-TOOL on Mon Sep 10 21:12:45 2018
### 

@<TRIPOS>MOLECULE
1rth_ligand
   36    38     1     0     0
SMALL
GAST_HUCK


@<TRIPOS>ATOM
      1 N1         -1.5530  -35.6200   23.1860 N.ar      1 U05        -0.2307
      2 C2         -2.4820  -35.0520   22.3410 C.ar      1 U05         0.0320
      3 C3         -3.4460  -34.1360   22.8040 C.ar      1 U05        -0.0151
      4 C4         -3.4460  -33.7790   24.2040 C.ar      1 U05        -0.0018
      5 C4A        -2.4880  -34.3490   25.0450 C.ar      1 U05         0.1722
      6 C5         -2.4630  -33.9540   26.5200 C.2       1 U05         0.3422
      7 O13        -3.5450  -33.6850   27.0400 O.2       1 U05        -0.3345
      8 N6         -1.3080  -33.8460   27.2310 N.am      1 U05        -0.1037
      9 C12        -1.4150  -33.5610   28.6910 C.3       1 U05         0.1091
     10 C6A         0.0770  -34.0530   26.7760 C.ar      1 U05         0.3085
     11 C7          1.1310  -33.2750   27.2920 C.ar      1 U05         0.0831
     12 C8          2.4600  -33.4350   26.7960 C.ar      1 U05         0.0395
     13 C9          2.7370  -34.3700   25.7890 C.ar      1 U05         0.1534
     14 N           4.1550  -34.5340   25.2150 N.2       1 U05        -0.1762
     15 O1          4.3450  -35.3100   24.2770 O.2       1 U05        -0.4700
     16 O2          5.0340  -33.9020   25.7420 O.2       1 U05        -0.4700
     17 C10         1.6850  -35.1500   25.3050 C.ar      1 U05         0.1034
     18 C11         0.3740  -34.9970   25.8070 C.ar      1 U05         0.2891
     19 N11        -0.6670  -35.8440   25.4330 N.pl3     1 U05        -0.1404
     20 C14        -0.3720  -37.3680   25.4130 C.3       1 U05         0.0919
     21 C15        -0.1980  -37.9540   24.0750 C.3       1 U05        -0.0287
     22 C1A        -1.5670  -35.2720   24.5080 C.ar      1 U05         0.2443
     23 H1         -2.4702  -35.3180   21.2902 H         1 U05         0.0927
     24 H2         -4.1733  -33.7074   22.1239 H         1 U05         0.0825
     25 H3         -4.1772  -33.0806   24.5948 H         1 U05         0.0822
     26 H4         -2.4719  -33.4178   28.9601 H         1 U05         0.0788
     27 H5         -0.8492  -32.6482   28.9289 H         1 U05         0.0788
     28 H6         -1.0029  -34.4068   29.2609 H         1 U05         0.0788
     29 H7          0.9318  -32.5490   28.0719 H         1 U05         0.0893
     30 H8          3.2617  -32.8284   27.2015 H         1 U05         0.1053
     31 H9          1.8777  -35.8847   24.5316 H         1 U05         0.0911
     32 H10        -1.2105  -37.8836   25.9040 H         1 U05         0.0719
     33 H11         0.5515  -37.5436   25.9842 H         1 U05         0.0719
     34 H12         0.0055  -39.0308   24.1700 H         1 U05         0.0265
     35 H13         0.6463  -37.4647   23.5674 H         1 U05         0.0265
     36 H14        -1.1157  -37.8047   23.4871 H         1 U05         0.0265
@<TRIPOS>BOND
     1    1   22 ar 
     2    1    2 ar 
     3    2    3 ar 
     4    3    4 ar 
     5    4    5 ar 
     6    5   22 ar 
     7    5    6 1  
     8    6    8 am 
     9    6    7 2  
    10    8   10 1  
    11    8    9 1  
    12   10   18 ar 
    13   10   11 ar 
    14   11   12 ar 
    15   12   13 ar 
    16   13   17 ar 
    17   13   14 1  
    18   14   16 2  
    19   14   15 2  
    20   17   18 ar 
    21   18   19 1  
    22   19   22 1  
    23   19   20 1  
    24   20   21 1  
    25    2   23 1  
    26    3   24 1  
    27    4   25 1  
    28    9   26 1  
    29    9   27 1  
    30    9   28 1  
    31   11   29 1  
    32   12   30 1  
    33   17   31 1  
    34   20   32 1  
    35   20   33 1  
    36   21   34 1  
    37   21   35 1  
    38   21   36 1  
@<TRIPOS>SUBSTRUCTURE
     1 U05         1

