### 
### Created by X-TOOL on Mon Sep 10 21:12:45 2018
### 

@<TRIPOS>MOLECULE
1rti_ligand
   37    38     1     0     0
SMALL
GAST_HUCK


@<TRIPOS>ATOM
      1 N1         -2.8330  -34.6540   23.8230 N.am      1 HEF        -0.1568
      2 C2         -2.6900  -34.8940   22.4570 C.2       1 HEF         0.3270
      3 O2         -3.3270  -34.2730   21.6050 O.2       1 HEF        -0.3844
      4 N3         -1.7770  -35.8800   22.1120 N.am      1 HEF        -0.1891
      5 C4         -1.0110  -36.6310   22.9960 C.2       1 HEF         0.1806
      6 O4         -0.2350  -37.4840   22.5690 O.2       1 HEF        -0.4174
      7 C5         -1.2230  -36.3100   24.4010 C.2       1 HEF         0.0286
      8 C6         -2.1080  -35.3500   24.7600 C.2       1 HEF         0.1443
      9 CM5        -0.4640  -37.0920   25.4750 C.3       1 HEF        -0.0502
     10 CM         -3.8170  -33.6410   24.2480 C.3       1 HEF         0.1638
     11 OM         -5.1570  -34.0970   24.0420 O.3       1 HEF        -0.3485
     12 CE1        -6.0100  -33.7270   25.1320 C.3       1 HEF         0.0738
     13 CE2        -7.4820  -33.9480   24.7960 C.3       1 HEF         0.0677
     14 OE         -7.6900  -35.1870   24.1380 O.3       1 HEF        -0.3927
     15 S'         -2.3540  -34.9350   26.5170 S.3       1 HEF        -0.0055
     16 C1'        -0.8930  -33.9680   27.0150 C.ar      1 HEF         0.0356
     17 C2'        -0.7480  -33.5680   28.3380 C.ar      1 HEF        -0.0470
     18 C3'         0.3860  -32.8690   28.7370 C.ar      1 HEF        -0.0673
     19 C4'         1.3790  -32.5660   27.8110 C.ar      1 HEF        -0.0684
     20 C5'         1.2360  -32.9650   26.4880 C.ar      1 HEF        -0.0673
     21 C6'         0.0980  -33.6650   26.0900 C.ar      1 HEF        -0.0470
     22 H1         -1.6590  -36.0679   21.1369 H         1 HEF         0.2251
     23 H2          0.2034  -37.8222   24.9940 H         1 HEF         0.0263
     24 H3         -1.1816  -37.6204   26.1198 H         1 HEF         0.0263
     25 H4          0.1320  -36.3957   26.0832 H         1 HEF         0.0263
     26 H5         -3.6584  -32.7214   23.6657 H         1 HEF         0.0918
     27 H6         -3.6720  -33.4275   25.3173 H         1 HEF         0.0918
     28 H7         -5.8528  -32.6630   25.3626 H         1 HEF         0.0584
     29 H8         -5.7497  -34.3351   26.0109 H         1 HEF         0.0584
     30 H9         -7.8239  -33.1342   24.1397 H         1 HEF         0.0580
     31 H10        -8.0659  -33.9371   25.7282 H         1 HEF         0.0580
     32 H11        -7.1926  -35.2019   23.3287 H         1 HEF         0.2095
     33 H12        -1.5211  -33.8016   29.0610 H         1 HEF         0.0570
     34 H13         0.4963  -32.5600   29.7702 H         1 HEF         0.0600
     35 H14         2.2625  -32.0197   28.1211 H         1 HEF         0.0561
     36 H15         2.0094  -32.7320   25.7651 H         1 HEF         0.0600
     37 H16        -0.0137  -33.9734   25.0568 H         1 HEF         0.0570
@<TRIPOS>BOND
     1    1    2 am 
     2    1    8 1  
     3    1   10 1  
     4    2    3 2  
     5    2    4 am 
     6    4    5 am 
     7    5    6 2  
     8    5    7 1  
     9    7    8 2  
    10    7    9 1  
    11    8   15 1  
    12   10   11 1  
    13   11   12 1  
    14   12   13 1  
    15   13   14 1  
    16   15   16 1  
    17   16   17 ar 
    18   16   21 ar 
    19   17   18 ar 
    20   18   19 ar 
    21   19   20 ar 
    22   20   21 ar 
    23    4   22 1  
    24    9   23 1  
    25    9   24 1  
    26    9   25 1  
    27   10   26 1  
    28   10   27 1  
    29   12   28 1  
    30   12   29 1  
    31   13   30 1  
    32   13   31 1  
    33   14   32 1  
    34   17   33 1  
    35   18   34 1  
    36   19   35 1  
    37   20   36 1  
    38   21   37 1  
@<TRIPOS>SUBSTRUCTURE
     1 HEF         1

