### 
### Created by X-TOOL on Mon Sep 10 21:12:51 2018
### 

@<TRIPOS>MOLECULE
1rtl_ligand
   70    73     1     0     0
SMALL
GAST_HUCK


@<TRIPOS>ATOM
      1 O27         4.8260   30.8300   12.2650 O.2       1 CPX        -0.4007
      2 C17         6.6250   23.4690   16.7460 C.3       1 CPX        -0.0309
      3 C16         5.3020   22.8850   16.3040 C.3       1 CPX        -0.0309
      4 C12         6.5370   22.6110   15.4880 C.3       1 CPX         0.0489
      5 C26         5.8020   31.4630   11.7920 C.2       1 CPX         0.2599
      6 N4          6.2450   32.7490   11.9290 N.am      1 CPX        -0.2700
      7 C29         6.0400   34.1040   12.4640 C.3       1 CPX         0.0424
      8 C30         7.2020   34.6780   13.4240 C.3       1 CPX        -0.0301
      9 C32         8.1220   35.6180   12.6150 C.3       1 CPX        -0.0509
     10 C31         7.4970   35.7500   11.2190 C.3       1 CPX        -0.0509
     11 C28         6.0610   35.1680   11.3020 C.3       1 CPX        -0.0301
     12 N3          6.6750   30.7830   10.9390 N.am      1 CPX        -0.2516
     13 C13         6.8190   29.4480   10.4320 C.3       1 CPX         0.1336
     14 C19         7.6070   29.7190    9.1350 C.3       1 CPX        -0.0065
     15 C22         8.5570   28.5730    8.7830 C.3       1 CPX        -0.0585
     16 C18         6.5860   30.0850    8.0690 C.3       1 CPX        -0.0585
     17 C14         7.5140   28.5430   11.4820 C.2       1 CPX         0.2043
     18 O15         8.2960   29.1290   12.2850 O.2       1 CPX        -0.3944
     19 N2          7.2520   27.1940   11.5600 N.am      1 CPX        -0.2668
     20 C6          7.8580   26.3970   12.5960 C.3       1 CPX         0.0781
     21 C8          6.7460   25.1940   12.6910 C.3       1 CPX         0.0663
     22 C9          5.7580   25.7870   12.0260 C.3       1 CPX        -0.0074
     23 C7          6.4090   26.3280   10.7190 C.3       1 CPX         0.0363
     24 N1          6.2670   24.6760   14.0570 N.am      1 CPX        -0.2816
     25 C10         6.8340   23.4070   14.2340 C.2       1 CPX         0.1794
     26 O11         7.6390   22.8180   13.4420 O.2       1 CPX        -0.3968
     27 C25         9.2430   26.0840   12.8890 C.3       1 CPX         0.0572
     28 C24         9.5660   25.2840   14.1790 C.2       1 CPX         0.1301
     29 O5          9.8210   24.0930   13.6900 O.2       1 CPX        -0.3136
     30 C23        10.4380   27.0010   12.9140 C.3       1 CPX        -0.0411
     31 C21        10.9070   26.6140   11.5360 C.3       1 CPX        -0.0543
     32 C20        10.0520   25.3670   11.7440 C.3       1 CPX        -0.0411
     33 H1          7.1267   23.0806   17.6445 H         1 CPX         0.0294
     34 H2          6.8052   24.5510   16.6642 H         1 CPX         0.0294
     35 H3          4.5174   23.5450   15.9057 H         1 CPX         0.0294
     36 H4          4.8389   22.0746   16.8861 H         1 CPX         0.0294
     37 H5          6.9456   21.5917   15.4250 H         1 CPX         0.0538
     38 H6          7.1137   32.7859   11.4351 H         1 CPX         0.1848
     39 H7          5.0767   34.1176   12.9949 H         1 CPX         0.0553
     40 H8          7.7936   33.8413   13.8240 H         1 CPX         0.0287
     41 H9          6.7477   35.2365   14.2557 H         1 CPX         0.0287
     42 H10         9.1317   35.1881   12.5395 H         1 CPX         0.0266
     43 H11         8.1784   36.6036   13.1001 H         1 CPX         0.0266
     44 H12         8.0907   35.1850   10.4853 H         1 CPX         0.0266
     45 H13         7.4580   36.8084   10.9221 H         1 CPX         0.0266
     46 H14         5.3429   35.9727   11.5182 H         1 CPX         0.0287
     47 H15         5.7965   34.6868   10.3489 H         1 CPX         0.0287
     48 H16         7.3901   31.3876   10.5882 H         1 CPX         0.1877
     49 H17         5.8411   29.0051   10.1921 H         1 CPX         0.0800
     50 H18         8.2396   30.6037    9.2996 H         1 CPX         0.0342
     51 H19         9.0936   28.8139    7.8535 H         1 CPX         0.0234
     52 H20         7.9792   27.6474    8.6434 H         1 CPX         0.0234
     53 H21         9.2815   28.4335    9.5989 H         1 CPX         0.0234
     54 H22         5.9614   30.9157    8.4294 H         1 CPX         0.0234
     55 H23         5.9496   29.2134    7.8561 H         1 CPX         0.0234
     56 H24         7.1084   30.3907    7.1505 H         1 CPX         0.0234
     57 H25         7.6553   27.0143   13.4836 H         1 CPX         0.0569
     58 H26         7.1204   24.3193   12.1390 H         1 CPX         0.0578
     59 H27         5.3371   26.6135   12.6174 H         1 CPX         0.0308
     60 H28         4.9638   25.0635   11.7899 H         1 CPX         0.0308
     61 H29         6.9628   25.5752   10.1388 H         1 CPX         0.0523
     62 H30         5.7188   26.8683   10.0544 H         1 CPX         0.0523
     63 H31         5.6654   25.1537   14.6972 H         1 CPX         0.1855
     64 H32         9.5779   25.6211   15.2144 H         1 CPX         0.1344
     65 H33        11.1608   26.7470   13.7033 H         1 CPX         0.0255
     66 H34        10.1653   28.0636   12.9947 H         1 CPX         0.0255
     67 H35        11.9877   26.4311   11.4429 H         1 CPX         0.0262
     68 H36        10.5764   27.2789   10.7245 H         1 CPX         0.0262
     69 H37         9.4416   25.0943   10.8705 H         1 CPX         0.0255
     70 H38        10.6204   24.4883   12.0828 H         1 CPX         0.0255
@<TRIPOS>BOND
     1    5    1 2  
     2    3    2 1  
     3    4    2 1  
     4    4    3 1  
     5   25    4 1  
     6    5    6 am 
     7   12    5 am 
     8    6    7 1  
     9    7    8 1  
    10    7   11 1  
    11    8    9 1  
    12   10    9 1  
    13   11   10 1  
    14   13   12 1  
    15   13   14 1  
    16   17   13 1  
    17   14   15 1  
    18   14   16 1  
    19   17   18 2  
    20   19   17 am 
    21   20   19 1  
    22   23   19 1  
    23   21   20 1  
    24   20   27 1  
    25   21   22 1  
    26   24   21 1  
    27   22   23 1  
    28   24   25 am 
    29   25   26 2  
    30   27   28 1  
    31   27   30 1  
    32   27   32 1  
    33   28   29 2  
    34   30   31 1  
    35   31   32 1  
    36    2   33 1  
    37    2   34 1  
    38    3   35 1  
    39    3   36 1  
    40    4   37 1  
    41    6   38 1  
    42    7   39 1  
    43    8   40 1  
    44    8   41 1  
    45    9   42 1  
    46    9   43 1  
    47   10   44 1  
    48   10   45 1  
    49   11   46 1  
    50   11   47 1  
    51   12   48 1  
    52   13   49 1  
    53   14   50 1  
    54   15   51 1  
    55   15   52 1  
    56   15   53 1  
    57   16   54 1  
    58   16   55 1  
    59   16   56 1  
    60   20   57 1  
    61   21   58 1  
    62   22   59 1  
    63   22   60 1  
    64   23   61 1  
    65   23   62 1  
    66   24   63 1  
    67   28   64 1  
    68   30   65 1  
    69   30   66 1  
    70   31   67 1  
    71   31   68 1  
    72   32   69 1  
    73   32   70 1  
@<TRIPOS>SUBSTRUCTURE
     1 CPX         1

