### 
### Created by X-TOOL on Mon Sep 10 21:12:52 2018
### 

@<TRIPOS>MOLECULE
1rv1_ligand
   76    80     1     0     0
SMALL
GAST_HUCK


@<TRIPOS>ATOM
      1 C4         12.2280    8.6240   13.6240 C.3       1 IMZ         0.0608
      2 C40        12.8510    8.9460   14.9790 C.ar      1 IMZ        -0.0289
      3 C45        12.0550    9.3540   16.0490 C.ar      1 IMZ        -0.0568
      4 C44        12.6320    9.6520   17.2950 C.ar      1 IMZ        -0.0590
      5 C41        14.2290    8.8410   15.1600 C.ar      1 IMZ        -0.0568
      6 C42        14.8070    9.1350   16.3850 C.ar      1 IMZ        -0.0590
      7 C43        14.0090    9.5350   17.4490 C.ar      1 IMZ         0.0056
      8 BR43       14.7790    9.8260   19.1110 Br        1 IMZ        -0.0561
      9 N3         10.9310    9.2340   13.4740 N.2       1 IMZ        -0.3563
     10 C2         10.0650    8.3550   12.8880 C.2       1 IMZ         0.1330
     11 C20         8.6620    8.6530   12.5560 C.ar      1 IMZ         0.0616
     12 C26         7.6100    7.6900   12.6200 C.ar      1 IMZ         0.1086
     13 O26         7.9380    6.3730   12.8810 O.3       1 IMZ        -0.3126
     14 C27         6.9030    5.6050   13.4720 C.3       1 IMZ         0.0702
     15 C28         7.4580    4.3070   13.9540 C.3       1 IMZ        -0.0367
     16 C25         6.3000    8.0540   12.3790 C.ar      1 IMZ         0.0050
     17 C21         8.3180    9.9750   12.2220 C.ar      1 IMZ        -0.0548
     18 C22         6.9840   10.3350   11.9760 C.ar      1 IMZ        -0.0340
     19 C23         5.9760    9.3620   12.0610 C.ar      1 IMZ         0.0914
     20 O23         4.6550    9.6950   11.8340 O.3       1 IMZ        -0.3182
     21 C24         4.4580   10.8450   10.9880 C.3       1 IMZ         0.0612
     22 N1         10.7080    7.1140   12.6170 N.am      1 IMZ        -0.1615
     23 C10        10.2210    6.1400   11.8090 C.2       1 IMZ         0.3065
     24 O10        10.3110    4.9580   12.1250 O.2       1 IMZ        -0.3854
     25 N10         9.5790    6.5030   10.6780 N.am      1 IMZ        -0.2418
     26 C15         8.6520    5.5510   10.0230 C.3       1 IMZ         0.0752
     27 C14         7.3870    6.2560    9.5610 C.3       1 IMZ        -0.0110
     28 N13         7.7360    7.5210    8.8490 N.4       1 IMZ         0.2397
     29 C13         7.7600    7.5260    7.3830 C.3       1 IMZ        -0.0080
     30 C16         6.5910    6.7500    6.8410 C.3       1 IMZ         0.0841
     31 O17         5.4180    7.1650    7.5190 O.3       1 IMZ        -0.3898
     32 C11         9.9240    7.7300    9.9280 C.3       1 IMZ         0.0752
     33 C12         8.6490    8.4490    9.5400 C.3       1 IMZ        -0.0110
     34 C5         11.9950    7.0870   13.3310 C.3       1 IMZ         0.1260
     35 C50        11.8920    6.2580   14.6360 C.ar      1 IMZ        -0.0055
     36 C51        10.7880    6.3830   15.4780 C.ar      1 IMZ        -0.0545
     37 C52        10.7390    5.7060   16.7070 C.ar      1 IMZ        -0.0589
     38 C55        12.9470    5.4260   15.0270 C.ar      1 IMZ        -0.0545
     39 C54        12.9020    4.7420   16.2520 C.ar      1 IMZ        -0.0589
     40 C53        11.8020    4.8940   17.0880 C.ar      1 IMZ         0.0056
     41 BR53       11.8210    4.1460   18.7870 Br        1 IMZ        -0.0561
     42 H1         12.9049    9.0240   12.8547 H         1 IMZ         0.0556
     43 H2         10.9825    9.4419   15.9184 H         1 IMZ         0.0564
     44 H3         12.0117    9.9690   18.1255 H         1 IMZ         0.0626
     45 H4         14.8557    8.5259   14.3335 H         1 IMZ         0.0564
     46 H5         15.8804    9.0528   16.5124 H         1 IMZ         0.0626
     47 H6          6.1175    5.4132   12.7262 H         1 IMZ         0.0617
     48 H7          6.4753    6.1584   14.3210 H         1 IMZ         0.0617
     49 H8          6.6542    3.7121   14.4123 H         1 IMZ         0.0256
     50 H9          8.2434    4.4984   14.7000 H         1 IMZ         0.0256
     51 H10         7.8856    3.7532   13.1052 H         1 IMZ         0.0256
     52 H11         5.5165    7.3073   12.4395 H         1 IMZ         0.0483
     53 H12         9.0952   10.7276   12.1535 H         1 IMZ         0.0638
     54 H13         6.7336   11.3586   11.7218 H         1 IMZ         0.0483
     55 H14         3.3806   11.0305   10.8664 H         1 IMZ         0.0582
     56 H15         4.9112   10.6578   10.0033 H         1 IMZ         0.0582
     57 H16         4.9317   11.7245   11.4485 H         1 IMZ         0.0582
     58 H17         8.3826    4.7604   10.7388 H         1 IMZ         0.0573
     59 H18         9.1525    5.1023    9.1523 H         1 IMZ         0.0573
     60 H19         6.7615    6.4910   10.4348 H         1 IMZ         0.0834
     61 H20         6.8310    5.5960    8.8789 H         1 IMZ         0.0834
     62 H21         6.8702    8.0180    8.9884 H         1 IMZ         0.2036
     63 H22         8.6955    7.0648    7.0334 H         1 IMZ         0.0837
     64 H23         7.7056    8.5638    7.0224 H         1 IMZ         0.0837
     65 H24         6.7525    5.6743    7.0049 H         1 IMZ         0.0610
     66 H25         6.4846    6.9449    5.7637 H         1 IMZ         0.0610
     67 H26         4.6722    6.6809    7.1845 H         1 IMZ         0.2096
     68 H27        10.4859    7.4617    9.0213 H         1 IMZ         0.0573
     69 H28        10.5396    8.3871   10.5599 H         1 IMZ         0.0573
     70 H29         8.1587    8.8351   10.4458 H         1 IMZ         0.0834
     71 H30         8.8929    9.2864    8.8697 H         1 IMZ         0.0834
     72 H31        12.7962    6.6756   12.6996 H         1 IMZ         0.0839
     73 H32         9.9564    7.0112   15.1799 H         1 IMZ         0.0565
     74 H33         9.8773    5.8156   17.3555 H         1 IMZ         0.0626
     75 H34        13.8071    5.3086   14.3778 H         1 IMZ         0.0565
     76 H35        13.7226    4.0972   16.5451 H         1 IMZ         0.0626
@<TRIPOS>BOND
     1    1    2 1  
     2    1    9 1  
     3    1   34 1  
     4    2    3 ar 
     5    2    5 ar 
     6    3    4 ar 
     7    4    7 ar 
     8    5    6 ar 
     9    6    7 ar 
    10    7    8 1  
    11    9   10 2  
    12   10   11 1  
    13   10   22 am 
    14   11   12 ar 
    15   11   17 ar 
    16   12   13 1  
    17   12   16 ar 
    18   13   14 1  
    19   14   15 1  
    20   16   19 ar 
    21   17   18 ar 
    22   18   19 ar 
    23   19   20 1  
    24   20   21 1  
    25   22   23 am 
    26   22   34 1  
    27   23   24 2  
    28   23   25 am 
    29   25   26 1  
    30   25   32 1  
    31   26   27 1  
    32   27   28 1  
    33   28   29 1  
    34   28   33 1  
    35   29   30 1  
    36   30   31 1  
    37   32   33 1  
    38   34   35 1  
    39   35   36 ar 
    40   35   38 ar 
    41   36   37 ar 
    42   37   40 ar 
    43   38   39 ar 
    44   39   40 ar 
    45   40   41 1  
    46    1   42 1  
    47    3   43 1  
    48    4   44 1  
    49    5   45 1  
    50    6   46 1  
    51   14   47 1  
    52   14   48 1  
    53   15   49 1  
    54   15   50 1  
    55   15   51 1  
    56   16   52 1  
    57   17   53 1  
    58   18   54 1  
    59   21   55 1  
    60   21   56 1  
    61   21   57 1  
    62   26   58 1  
    63   26   59 1  
    64   27   60 1  
    65   27   61 1  
    66   28   62 1  
    67   29   63 1  
    68   29   64 1  
    69   30   65 1  
    70   30   66 1  
    71   31   67 1  
    72   32   68 1  
    73   32   69 1  
    74   33   70 1  
    75   33   71 1  
    76   34   72 1  
    77   36   73 1  
    78   37   74 1  
    79   38   75 1  
    80   39   76 1  
@<TRIPOS>SUBSTRUCTURE
     1 IMZ         1

