### 
### Created by X-TOOL on Mon Sep 10 21:12:53 2018
### 

@<TRIPOS>MOLECULE
1rw8_ligand
   38    41     1     0     0
SMALL
GAST_HUCK


@<TRIPOS>ATOM
      1 C1          5.6040   15.4780   10.8420 C.2       1 580         0.0108
      2 C2          4.5310   15.1030    9.8480 C.2       1 580         0.0550
      3 N3          4.3320   13.7430    9.8440 N.2       1 580        -0.2108
      4 N4          5.2360   13.3190   10.7860 N.pl3     1 580        -0.1957
      5 C5          5.9700   14.2530   11.3730 C.2       1 580         0.0875
      6 C6          5.4860   11.9500   11.2320 C.3       1 580         0.0749
      7 C7          6.6030   12.1950   12.2890 C.3       1 580        -0.0084
      8 C8          6.9280   13.7080   12.3840 C.3       1 580         0.0171
      9 C15         3.7310   15.9850    8.9620 C.ar      1 580         0.0459
     10 C16         6.1690   16.8260   11.2090 C.ar      1 580        -0.0434
     11 C17         5.3090   17.8820   11.5710 C.ar      1 580        -0.0664
     12 C18         5.8120   19.1620   11.9120 C.ar      1 580        -0.0349
     13 C19         7.1960   19.3770   11.8900 C.ar      1 580         0.1255
     14 C20         8.0920   18.3420   11.5360 C.ar      1 580        -0.0349
     15 C21         7.5670   17.0650   11.1940 C.ar      1 580        -0.0664
     16 C26         4.2780   17.0550    8.2200 C.ar      1 580        -0.0358
     17 C27         3.4200   17.8330    7.4080 C.ar      1 580        -0.0502
     18 C28         2.0350   17.5410    7.3340 C.ar      1 580        -0.0347
     19 C29         1.5520   16.4590    8.0990 C.ar      1 580         0.0218
     20 N30         2.3740   15.7310    8.8660 N.ar      1 580        -0.2962
     21 F34         7.6650   20.5720   12.2050 F         1 580        -0.1886
     22 C35         0.1140   16.0570    8.1040 C.3       1 580        -0.0160
     23 H1          5.8395   11.3127   10.4081 H         1 580         0.0642
     24 H2          4.5900   11.5005   11.6849 H         1 580         0.0642
     25 H3          7.5095   11.6466   11.9934 H         1 580         0.0321
     26 H4          6.2601   11.8348   13.2701 H         1 580         0.0321
     27 H5          6.7269   14.1047   13.3901 H         1 580         0.0492
     28 H6          7.9723   13.9176   12.1091 H         1 580         0.0492
     29 H7          4.2387   17.7113   11.5890 H         1 580         0.0548
     30 H8          5.1355   19.9634   12.1860 H         1 580         0.0588
     31 H9          9.1614   18.5188   11.5254 H         1 580         0.0588
     32 H10         8.2439   16.2644   10.9184 H         1 580         0.0548
     33 H11         5.3379   17.2764    8.2719 H         1 580         0.0648
     34 H12         3.8255   18.6603    6.8369 H         1 580         0.0711
     35 H13         1.3703   18.1287    6.7113 H         1 580         0.0637
     36 H14        -0.0227   15.1926    8.7704 H         1 580         0.0420
     37 H15        -0.1944   15.7857    7.0836 H         1 580         0.0420
     38 H16        -0.5002   16.8965    8.4617 H         1 580         0.0420
@<TRIPOS>BOND
     1    1    2 1  
     2    1    5 2  
     3    1   10 1  
     4    2    3 2  
     5    2    9 1  
     6    3    4 1  
     7    4    5 1  
     8    4    6 1  
     9    5    8 1  
    10    6    7 1  
    11    7    8 1  
    12    9   16 ar 
    13    9   20 ar 
    14   10   11 ar 
    15   10   15 ar 
    16   11   12 ar 
    17   12   13 ar 
    18   13   14 ar 
    19   13   21 1  
    20   14   15 ar 
    21   16   17 ar 
    22   17   18 ar 
    23   18   19 ar 
    24   19   20 ar 
    25   19   22 1  
    26    6   23 1  
    27    6   24 1  
    28    7   25 1  
    29    7   26 1  
    30    8   27 1  
    31    8   28 1  
    32   11   29 1  
    33   12   30 1  
    34   14   31 1  
    35   15   32 1  
    36   16   33 1  
    37   17   34 1  
    38   18   35 1  
    39   22   36 1  
    40   22   37 1  
    41   22   38 1  
@<TRIPOS>SUBSTRUCTURE
     1 580         1

