### 
### Created by X-TOOL on Mon Sep 10 21:12:52 2018
### 

@<TRIPOS>MOLECULE
1rwq_ligand
   46    48     1     0     0
SMALL
GAST_HUCK


@<TRIPOS>ATOM
      1 CL2        49.7120   53.4030   37.3160 Cl        1 5AP        -0.0675
      2 C17        49.0030   51.8890   37.7150 C.ar      1 5AP         0.0521
      3 C16        48.9580   51.4980   38.9990 C.ar      1 5AP        -0.0313
      4 C14        48.4020   50.2830   39.1680 C.ar      1 5AP         0.0430
      5 CL1        48.2710   49.6890   40.7980 Cl        1 5AP        -0.0686
      6 C13        47.8940   49.5360   38.1530 C.ar      1 5AP        -0.0451
      7 C12        47.9610   49.9740   36.8460 C.ar      1 5AP        -0.0499
      8 C11        48.5410   51.1900   36.6580 C.ar      1 5AP         0.0125
      9 C10        48.6760   51.7490   35.3720 C.ar      1 5AP         0.0606
     10 C19        47.7750   52.8440   34.9850 C.ar      1 5AP         0.0774
     11 C20        46.6030   53.1770   35.7970 C.3       1 5AP         0.0069
     12 N21        46.7590   53.9680   36.8430 N.4       1 5AP         0.2313
     13 C22        48.1050   53.5440   33.7510 C.ar      1 5AP         0.1325
     14 N23        47.3510   54.5960   33.3240 N.pl3     1 5AP        -0.3180
     15 N9         49.7210   51.4440   34.6400 N.ar      1 5AP        -0.2837
     16 C2         49.9730   52.1070   33.5250 C.ar      1 5AP         0.0949
     17 N1         49.1880   53.1040   33.0970 N.ar      1 5AP        -0.2586
     18 C3         51.1550   51.6750   32.7300 C.ar      1 5AP        -0.0049
     19 C4         51.9650   50.6280   33.0980 C.ar      1 5AP        -0.0309
     20 C5         53.0750   50.2850   32.2980 C.ar      1 5AP         0.0856
     21 O25        53.8770   49.2440   32.6210 O.3       1 5AP        -0.3234
     22 C28        53.4690   48.3310   33.6290 C.3       1 5AP         0.0591
     23 C6         53.3930   50.9660   31.1500 C.ar      1 5AP        -0.0025
     24 C7         52.5550   52.0000   30.7970 C.ar      1 5AP         0.0856
     25 C8         51.4710   52.3630   31.5880 C.ar      1 5AP        -0.0309
     26 O26        52.8140   52.7630   29.7000 O.3       1 5AP        -0.3234
     27 C29        53.6810   53.8530   29.9870 C.3       1 5AP         0.0591
     28 H1         49.3323   52.1008   39.8185 H         1 5AP         0.0634
     29 H2         47.4292   48.5818   38.3732 H         1 5AP         0.0629
     30 H3         47.5756   49.3859   36.0210 H         1 5AP         0.0641
     31 H4         46.1862   52.2289   36.1677 H         1 5AP         0.0984
     32 H5         45.8747   53.6620   35.1304 H         1 5AP         0.0984
     33 H6         45.8695   54.1035   37.2974 H         1 5AP         0.2008
     34 H7         47.1205   54.8587   36.5398 H         1 5AP         0.2008
     35 H8         47.4060   53.5455   37.4903 H         1 5AP         0.2008
     36 H9         47.5946   55.0829   32.4496 H         1 5AP         0.1786
     37 H10        46.5376   54.9041   33.8757 H         1 5AP         0.1786
     38 H11        51.7516   50.0670   34.0007 H         1 5AP         0.0481
     39 H12        54.2397   47.5565   33.7559 H         1 5AP         0.0577
     40 H13        52.5201   47.8592   33.3341 H         1 5AP         0.0577
     41 H14        53.3312   48.8700   34.5779 H         1 5AP         0.0577
     42 H15        54.2585   50.7037   30.5523 H         1 5AP         0.0488
     43 H16        50.8616   53.2101   31.2945 H         1 5AP         0.0481
     44 H17        53.8560   54.4338   29.0693 H         1 5AP         0.0577
     45 H18        54.6395   53.4691   30.3663 H         1 5AP         0.0577
     46 H19        53.2182   54.4993   30.7473 H         1 5AP         0.0577
@<TRIPOS>BOND
     1    1    2 1  
     2    2    3 ar 
     3    2    8 ar 
     4    3    4 ar 
     5    4    5 1  
     6    4    6 ar 
     7    6    7 ar 
     8    7    8 ar 
     9    8    9 1  
    10    9   10 ar 
    11    9   15 ar 
    12   10   11 1  
    13   10   13 ar 
    14   11   12 1  
    15   13   14 1  
    16   13   17 ar 
    17   15   16 ar 
    18   16   17 ar 
    19   16   18 1  
    20   18   19 ar 
    21   18   25 ar 
    22   19   20 ar 
    23   20   21 1  
    24   20   23 ar 
    25   21   22 1  
    26   23   24 ar 
    27   24   25 ar 
    28   24   26 1  
    29   26   27 1  
    30    3   28 1  
    31    6   29 1  
    32    7   30 1  
    33   11   31 1  
    34   11   32 1  
    35   12   33 1  
    36   12   34 1  
    37   12   35 1  
    38   14   36 1  
    39   14   37 1  
    40   19   38 1  
    41   22   39 1  
    42   22   40 1  
    43   22   41 1  
    44   23   42 1  
    45   25   43 1  
    46   27   44 1  
    47   27   45 1  
    48   27   46 1  
@<TRIPOS>SUBSTRUCTURE
     1 5AP         1

