### 
### Created by X-TOOL on Mon Sep 10 21:12:51 2018
### 

@<TRIPOS>MOLECULE
1rww_ligand
   58    61     1     0     0
SMALL
GAST_HUCK


@<TRIPOS>ATOM
      1 O37        32.7740   61.5760    2.0540 O.co2     1 OQB        -0.5688
      2 C9         33.9600   61.3840    2.3970 C.2       1 OQB         0.0393
      3 O33        34.8810   62.1560    2.0490 O.co2     1 OQB        -0.5688
      4 C10        34.3050   60.1830    3.2540 C.3       1 OQB         0.0393
      5 C27        33.1080   59.7180    4.0860 C.3       1 OQB         0.1237
      6 C28        33.1900   58.2320    4.3470 C.2       1 OQB         0.1261
      7 O35        33.0140   57.4310    3.4430 O.2       1 OQB        -0.3723
      8 N3         33.0030   60.4690    5.3280 N.am      1 OQB        -0.2645
      9 C16        31.8130   60.8100    5.8320 C.2       1 OQB         0.2102
     10 O34        30.7920   60.2330    5.4880 O.2       1 OQB        -0.3846
     11 C21        31.7030   61.9290    6.8350 C.ar      1 OQB         0.0703
     12 C12        32.6670   62.9380    6.9110 C.ar      1 OQB         0.0231
     13 N1         32.5570   63.9350    7.8080 N.ar      1 OQB        -0.2894
     14 C23        30.6170   61.9730    7.7040 C.ar      1 OQB        -0.0293
     15 C24        30.5290   63.0150    8.6220 C.ar      1 OQB        -0.0251
     16 C14        31.5170   63.9980    8.6600 C.ar      1 OQB         0.0546
     17 C19        31.3840   65.1170    9.6750 C.3       1 OQB         0.0809
     18 N6         32.3750   66.1690    9.5010 N.am      1 OQB        -0.2734
     19 C15        32.9000   66.8030   10.5530 C.2       1 OQB         0.1985
     20 O36        32.7330   66.3840   11.6880 O.2       1 OQB        -0.3900
     21 C20        33.7220   68.0510   10.3720 C.ar      1 OQB         0.0380
     22 C22        33.7760   68.9960   11.3970 C.ar      1 OQB        -0.0513
     23 C26        34.4310   68.2810    9.1960 C.ar      1 OQB        -0.0513
     24 C25        35.1910   69.4420    9.0420 C.ar      1 OQB        -0.0321
     25 C11        35.2510   70.3900   10.0680 C.ar      1 OQB         0.0695
     26 C8         34.5400   70.1530   11.2470 C.ar      1 OQB        -0.0321
     27 N2         35.9740   71.5450    9.9820 N.pl3     1 OQB        -0.2488
     28 C13        36.7340   71.9890    8.9400 C.ar      1 OQB         0.1648
     29 C29        37.3870   73.2160    9.0840 C.ar      1 OQB         0.0716
     30 N4         38.1420   73.6990    8.0840 N.ar      1 OQB        -0.2730
     31 N5         36.8670   71.3040    7.7910 N.ar      1 OQB        -0.2627
     32 C32        37.5890   71.8040    6.7740 C.ar      1 OQB         0.0560
     33 C31        38.2500   73.0220    6.9270 C.ar      1 OQB         0.0656
     34 C17        37.6860   71.1040    5.5700 C.ar      1 OQB        -0.0388
     35 C30        38.4370   71.6290    4.5180 C.ar      1 OQB        -0.0556
     36 C18        39.0930   72.8530    4.6690 C.ar      1 OQB        -0.0550
     37 C7         38.9960   73.5530    5.8710 C.ar      1 OQB        -0.0361
     38 H1         35.1271   60.4539    3.9328 H         1 OQB         0.0479
     39 H2         34.6260   59.3589    2.6000 H         1 OQB         0.0479
     40 H3         32.1958   59.9085    3.5015 H         1 OQB         0.0809
     41 H4         33.4082   57.8722    5.3514 H         1 OQB         0.1375
     42 H5         33.8361   60.7347    5.8131 H         1 OQB         0.1878
     43 H6         33.5160   62.9172    6.2373 H         1 OQB         0.0857
     44 H7         29.8510   61.2069    7.6663 H         1 OQB         0.0768
     45 H8         29.6913   63.0625    9.3084 H         1 OQB         0.0662
     46 H9         31.4996   64.6909   10.6825 H         1 OQB         0.0722
     47 H10        30.3822   65.5607    9.5772 H         1 OQB         0.0722
     48 H11        32.6676   66.4212    8.5786 H         1 OQB         0.1873
     49 H12        33.2218   68.8302   12.3138 H         1 OQB         0.0640
     50 H13        34.3926   67.5530    8.3938 H         1 OQB         0.0640
     51 H14        35.7380   69.6095    8.1212 H         1 OQB         0.0551
     52 H15        34.5826   70.8759   12.0536 H         1 OQB         0.0551
     53 H16        35.9414   72.1587   10.8086 H         1 OQB         0.2182
     54 H17        37.2839   73.7790   10.0046 H         1 OQB         0.0926
     55 H18        37.1783   70.1535    5.4527 H         1 OQB         0.0633
     56 H19        38.5115   71.0865    3.5825 H         1 OQB         0.0663
     57 H20        39.6777   73.2588    3.8514 H         1 OQB         0.0638
     58 H21        39.4980   74.5068    5.9862 H         1 OQB         0.0665
@<TRIPOS>BOND
     1    1    2 ar 
     2    2    3 ar 
     3    2    4 1  
     4    4    5 1  
     5    5    6 1  
     6    5    8 1  
     7    6    7 2  
     8    8    9 am 
     9    9   10 2  
    10    9   11 1  
    11   11   12 ar 
    12   11   14 ar 
    13   12   13 ar 
    14   13   16 ar 
    15   14   15 ar 
    16   15   16 ar 
    17   16   17 1  
    18   17   18 1  
    19   18   19 am 
    20   19   20 2  
    21   19   21 1  
    22   21   22 ar 
    23   21   23 ar 
    24   22   26 ar 
    25   23   24 ar 
    26   24   25 ar 
    27   25   26 ar 
    28   25   27 1  
    29   27   28 1  
    30   28   29 ar 
    31   28   31 ar 
    32   29   30 ar 
    33   30   33 ar 
    34   31   32 ar 
    35   32   33 ar 
    36   32   34 ar 
    37   33   37 ar 
    38   34   35 ar 
    39   35   36 ar 
    40   36   37 ar 
    41    4   38 1  
    42    4   39 1  
    43    5   40 1  
    44    6   41 1  
    45    8   42 1  
    46   12   43 1  
    47   14   44 1  
    48   15   45 1  
    49   17   46 1  
    50   17   47 1  
    51   18   48 1  
    52   22   49 1  
    53   23   50 1  
    54   24   51 1  
    55   26   52 1  
    56   27   53 1  
    57   29   54 1  
    58   34   55 1  
    59   35   56 1  
    60   36   57 1  
    61   37   58 1  
@<TRIPOS>SUBSTRUCTURE
     1 OQB         1

