### 
### Created by X-TOOL on Mon Sep 10 21:12:51 2018
### 

@<TRIPOS>MOLECULE
1rwx_ligand
   67    70     1     0     0
SMALL
GAST_HUCK


@<TRIPOS>ATOM
      1 O39        33.1450   58.1130    3.4910 O.2       1 YBH        -0.3723
      2 C31        33.3880   58.8620    4.4260 C.2       1 YBH         0.1262
      3 C17        33.2710   60.3580    4.2450 C.3       1 YBH         0.1242
      4 C12        34.4370   60.8530    3.3890 C.3       1 YBH         0.0393
      5 C6         34.0240   61.9940    2.4840 C.2       1 YBH         0.0394
      6 O38        32.8100   62.2510    2.3240 O.co2     1 YBH        -0.5688
      7 O36        34.9290   62.6430    1.9180 O.co2     1 YBH        -0.5688
      8 N4         33.2220   61.0760    5.5120 N.am      1 YBH        -0.2633
      9 C18        32.0780   61.3780    6.1360 C.2       1 YBH         0.1950
     10 O35        30.9860   60.9800    5.7580 O.2       1 YBH        -0.3932
     11 C8         32.1900   62.2490    7.3620 C.3       1 YBH         0.0930
     12 C28        31.9320   61.4690    8.6260 C.2       1 YBH         0.0337
     13 S41        33.1760   60.8570    9.6230 S.3       1 YBH        -0.0416
     14 C9         30.6610   61.1730    9.1300 C.2       1 YBH        -0.0789
     15 C15        30.7840   60.5850   10.4190 C.2       1 YBH        -0.0924
     16 C7         32.0550   60.3840   10.7990 C.2       1 YBH        -0.0189
     17 C11        31.2390   63.4460    7.2670 C.3       1 YBH        -0.0219
     18 C25        31.6280   64.5610    8.2350 C.3       1 YBH        -0.0469
     19 C13        30.5160   65.5960    8.3780 C.3       1 YBH        -0.0325
     20 C14        30.6150   66.3310    9.7110 C.3       1 YBH         0.0302
     21 N3         31.4670   67.5050    9.6370 N.am      1 YBH        -0.2876
     22 C33        31.9450   68.1230   10.7210 C.2       1 YBH         0.1976
     23 O37        31.3700   68.0730   11.7990 O.2       1 YBH        -0.3893
     24 C16        33.2230   68.9100   10.6140 C.ar      1 YBH         0.0396
     25 C20        33.5070   69.9120   11.5460 C.ar      1 YBH        -0.0489
     26 C21        34.6890   70.6460   11.4520 C.ar      1 YBH        -0.0208
     27 C22        35.5980   70.3780   10.4270 C.ar      1 YBH         0.1290
     28 C23        35.3110   69.3840    9.4890 C.ar      1 YBH        -0.0208
     29 C24        34.1300   68.6480    9.5850 C.ar      1 YBH        -0.0489
     30 O34        36.7540   71.1150   10.3380 O.3       1 YBH        -0.2246
     31 C26        38.0160   70.6220   10.5750 C.ar      1 YBH         0.2232
     32 C27        39.0170   71.5060   10.9760 C.ar      1 YBH         0.0827
     33 N1         40.2590   71.0560   11.2110 N.ar      1 YBH        -0.2711
     34 N2         38.3090   69.3200   10.4170 N.ar      1 YBH        -0.2495
     35 C30        39.5550   68.8710   10.6410 C.ar      1 YBH         0.0604
     36 C29        40.5490   69.7570   11.0500 C.ar      1 YBH         0.0673
     37 C10        41.8470   69.2990   11.2800 C.ar      1 YBH        -0.0351
     38 C32        42.1470   67.9480   11.1050 C.ar      1 YBH        -0.0542
     39 C19        41.1510   67.0620   10.6970 C.ar      1 YBH        -0.0547
     40 C5         39.8540   67.5220   10.4660 C.ar      1 YBH        -0.0374
     41 H1         33.6886   58.4516    5.3889 H         1 YBH         0.1375
     42 H2         32.3335   60.5633    3.7075 H         1 YBH         0.0809
     43 H3         34.8023   60.0210    2.7691 H         1 YBH         0.0479
     44 H4         35.2441   61.1983    4.0518 H         1 YBH         0.0479
     45 H5         34.0839   61.3561    5.9348 H         1 YBH         0.1886
     46 H6         33.2192   62.6345    7.4077 H         1 YBH         0.0720
     47 H7         29.7211   61.3637    8.6141 H         1 YBH         0.0284
     48 H8         29.9279   60.3228   11.0388 H         1 YBH         0.0373
     49 H9         32.3355   59.9611   11.7625 H         1 YBH         0.0603
     50 H10        30.2189   63.1094    7.5039 H         1 YBH         0.0317
     51 H11        31.2658   63.8408    6.2407 H         1 YBH         0.0317
     52 H12        32.5334   65.0599    7.8592 H         1 YBH         0.0269
     53 H13        31.8346   64.1208    9.2217 H         1 YBH         0.0269
     54 H14        29.5425   65.0871    8.3203 H         1 YBH         0.0285
     55 H15        30.5975   66.3258    7.5590 H         1 YBH         0.0285
     56 H16        31.0274   65.6428   10.4635 H         1 YBH         0.0519
     57 H17        29.6062   66.6460   10.0159 H         1 YBH         0.0519
     58 H18        31.7062   67.8664    8.7358 H         1 YBH         0.1841
     59 H19        32.8052   70.1196   12.3457 H         1 YBH         0.0645
     60 H20        34.9020   71.4250   12.1751 H         1 YBH         0.0572
     61 H21        36.0084   69.1837    8.6836 H         1 YBH         0.0572
     62 H22        33.9159   67.8714    8.8597 H         1 YBH         0.0645
     63 H23        38.7913   72.5592   11.0982 H         1 YBH         0.0940
     64 H24        42.6200   69.9912   11.5938 H         1 YBH         0.0667
     65 H25        43.1532   67.5876   11.2860 H         1 YBH         0.0644
     66 H26        41.3848   66.0126   10.5588 H         1 YBH         0.0665
     67 H27        39.0807   66.8308   10.1510 H         1 YBH         0.0640
@<TRIPOS>BOND
     1    1    2 2  
     2    2    3 1  
     3    3    4 1  
     4    3    8 1  
     5    4    5 1  
     6    5    6 ar 
     7    5    7 ar 
     8    8    9 am 
     9    9   10 2  
    10    9   11 1  
    11   11   12 1  
    12   11   17 1  
    13   12   13 1  
    14   12   14 2  
    15   13   16 1  
    16   14   15 1  
    17   15   16 2  
    18   17   18 1  
    19   18   19 1  
    20   19   20 1  
    21   20   21 1  
    22   21   22 am 
    23   22   23 2  
    24   22   24 1  
    25   24   25 ar 
    26   24   29 ar 
    27   25   26 ar 
    28   26   27 ar 
    29   27   28 ar 
    30   27   30 1  
    31   28   29 ar 
    32   30   31 1  
    33   31   32 ar 
    34   31   34 ar 
    35   32   33 ar 
    36   33   36 ar 
    37   34   35 ar 
    38   35   36 ar 
    39   35   40 ar 
    40   36   37 ar 
    41   37   38 ar 
    42   38   39 ar 
    43   39   40 ar 
    44    2   41 1  
    45    3   42 1  
    46    4   43 1  
    47    4   44 1  
    48    8   45 1  
    49   11   46 1  
    50   14   47 1  
    51   15   48 1  
    52   16   49 1  
    53   17   50 1  
    54   17   51 1  
    55   18   52 1  
    56   18   53 1  
    57   19   54 1  
    58   19   55 1  
    59   20   56 1  
    60   20   57 1  
    61   21   58 1  
    62   25   59 1  
    63   26   60 1  
    64   28   61 1  
    65   29   62 1  
    66   32   63 1  
    67   37   64 1  
    68   38   65 1  
    69   39   66 1  
    70   40   67 1  
@<TRIPOS>SUBSTRUCTURE
     1 YBH         1

