### 
### Created by X-TOOL on Mon Sep 10 21:12:51 2018
### 

@<TRIPOS>MOLECULE
1rxp_ligand
   63    63     1     0     0
SMALL
GAST_HUCK


@<TRIPOS>ATOM
      1 C1         -0.0580   21.7020   30.4130 C.3       1 169        -0.0399
      2 C2          0.7520   21.4590   29.1230 C.3       1 169         0.0450
      3 C3          1.3380   22.8030   28.6460 C.3       1 169        -0.0399
      4 C4          1.9140   20.4920   29.4290 C.3       1 169        -0.0399
      5 N1         -0.7800   18.7820   27.1110 N.am      1 169        -0.2557
      6 C5         -1.9520   18.5330   26.1750 C.3       1 169         0.0544
      7 C6         -1.7320   19.3560   24.8910 C.3       1 169         0.0544
      8 C7          0.6210   18.5060   26.5600 C.3       1 169         0.0544
      9 C8          0.8190   19.2190   25.2040 C.3       1 169         0.0544
     10 C9         -0.3200   17.8640   23.3350 C.2       1 169         0.2618
     11 O1          0.3170   16.8710   23.5740 O.2       1 169        -0.4006
     12 N2         -0.3900   18.9840   24.3160 N.am      1 169        -0.2556
     13 C10        -1.1460   16.1930   20.4830 C.3       1 169         0.0650
     14 C11        -0.9680   15.1650   21.5720 C.2       1 169         0.1060
     15 N3         -1.0250   18.0520   22.1610 N.am      1 169        -0.2550
     16 C12        -0.4520   17.5140   20.9210 C.3       1 169         0.1129
     17 O2         -1.8680   14.8670   22.3280 O.2       1 169        -0.3744
     18 C13        -0.6830   15.5500   19.1450 C.3       1 169        -0.0276
     19 C14        -1.2950   14.1690   18.7860 C.3       1 169        -0.0172
     20 C15        -0.9520   13.6370   17.3850 C.3       1 169         0.0627
     21 N4         -1.8020   14.1970   16.3760 N.pl3     1 169        -0.2723
     22 C16        -2.0120   13.5910   15.2660 C.cat     1 169         0.2882
     23 N5         -2.6570   14.1180   14.1700 N.pl3     1 169        -0.2849
     24 N6         -1.6300   12.2950   14.9500 N.pl3     1 169        -0.2849
     25 C17        -0.6400   18.5270   19.8500 C.2       1 169         0.0625
     26 O3         -1.6830   19.0990   19.6510 O.co2     1 169        -0.5665
     27 O4          0.4570   18.7500   19.0970 O.co2     1 169        -0.5665
     28 C18        -0.9530   19.8050   28.2040 C.2       1 169         0.2605
     29 O5         -1.7580   19.6610   29.0960 O.2       1 169        -0.4006
     30 N7         -0.1210   20.8820   28.0640 N.am      1 169        -0.2678
     31 H1          0.6003   22.1278   31.1845 H         1 169         0.0254
     32 H2         -0.4728   20.7481   30.7707 H         1 169         0.0254
     33 H3         -0.8791   22.4034   30.2038 H         1 169         0.0254
     34 H4          1.9188   22.6437   27.7255 H         1 169         0.0254
     35 H5          1.9942   23.2147   29.4269 H         1 169         0.0254
     36 H6          0.5191   23.5094   28.4452 H         1 169         0.0254
     37 H7          1.5086   19.5282   29.7707 H         1 169         0.0254
     38 H8          2.5510   20.9216   30.2162 H         1 169         0.0254
     39 H9          2.5111   20.3364   28.5184 H         1 169         0.0254
     40 H10        -2.8882   18.8454   26.6606 H         1 169         0.0539
     41 H11        -2.0075   17.4631   25.9256 H         1 169         0.0539
     42 H12        -1.7499   20.4297   25.1295 H         1 169         0.0539
     43 H13        -2.5247   19.1288   24.1629 H         1 169         0.0539
     44 H14         0.7484   17.4223   26.4211 H         1 169         0.0539
     45 H15         1.3706   18.8746   27.2757 H         1 169         0.0539
     46 H16         1.7174   18.8206   24.7100 H         1 169         0.0539
     47 H17         0.9424   20.2987   25.3741 H         1 169         0.0539
     48 H18        -2.2181   16.4162   20.3790 H         1 169         0.0570
     49 H19        -0.0016   14.6753   21.6828 H         1 169         0.1353
     50 H20        -1.8982   18.5393   22.1564 H         1 169         0.1871
     51 H21         0.6209   17.3236   21.0713 H         1 169         0.0753
     52 H22         0.4091   15.4278   19.1943 H         1 169         0.0296
     53 H23        -0.9376   16.2482   18.3341 H         1 169         0.0296
     54 H24        -2.3893   14.2544   18.8575 H         1 169         0.0301
     55 H25        -0.9353   13.4368   19.5239 H         1 169         0.0301
     56 H26        -1.0695   12.5433   17.3816 H         1 169         0.0689
     57 H27         0.0920   13.8943   17.1530 H         1 169         0.0689
     58 H28        -2.2542   15.1066   16.5465 H         1 169         0.2642
     59 H29        -2.7769   13.5488   13.3200 H         1 169         0.2615
     60 H30        -3.0197   15.0816   14.1999 H         1 169         0.2615
     61 H31        -1.1280   11.7224   15.6436 H         1 169         0.2615
     62 H32        -1.8484   11.9055   14.0218 H         1 169         0.2615
     63 H33        -0.0970   21.3228   27.1667 H         1 169         0.1851
@<TRIPOS>BOND
     1    2    1 1  
     2    2    3 1  
     3    2    4 1  
     4   30    2 1  
     5    5    6 1  
     6    5    8 1  
     7   28    5 am 
     8    6    7 1  
     9    7   12 1  
    10    8    9 1  
    11    9   12 1  
    12   10   11 2  
    13   12   10 am 
    14   10   15 am 
    15   13   14 1  
    16   16   13 1  
    17   13   18 1  
    18   14   17 2  
    19   15   16 1  
    20   16   25 1  
    21   18   19 1  
    22   19   20 1  
    23   20   21 1  
    24   21   22 ar 
    25   22   23 ar 
    26   22   24 ar 
    27   25   26 ar 
    28   25   27 ar 
    29   28   29 2  
    30   28   30 am 
    31    1   31 1  
    32    1   32 1  
    33    1   33 1  
    34    3   34 1  
    35    3   35 1  
    36    3   36 1  
    37    4   37 1  
    38    4   38 1  
    39    4   39 1  
    40    6   40 1  
    41    6   41 1  
    42    7   42 1  
    43    7   43 1  
    44    8   44 1  
    45    8   45 1  
    46    9   46 1  
    47    9   47 1  
    48   13   48 1  
    49   14   49 1  
    50   15   50 1  
    51   16   51 1  
    52   18   52 1  
    53   18   53 1  
    54   19   54 1  
    55   19   55 1  
    56   20   56 1  
    57   20   57 1  
    58   21   58 1  
    59   23   59 1  
    60   23   60 1  
    61   24   61 1  
    62   24   62 1  
    63   30   63 1  
@<TRIPOS>SUBSTRUCTURE
     1 169         1

