### 
### Created by X-TOOL on Mon Sep 10 21:12:51 2018
### 

@<TRIPOS>MOLECULE
1s17_ligand
   26    27     1     0     0
SMALL
GAST_HUCK


@<TRIPOS>ATOM
      1 OAM        56.2630   52.2270   37.8260 O.2       1 GNR        -0.3842
      2 CAH        56.1400   51.3030   37.0290 C.2       1 GNR         0.2192
      3 NAG        57.1640   50.9900   36.1660 N.am      1 GNR        -0.2349
      4 CAD        57.1510   50.0330   35.1640 C.ar      1 GNR         0.0794
      5 CAC        58.3470   49.7510   34.4790 C.ar      1 GNR        -0.0467
      6 CAB        58.3850   48.7380   33.5020 C.ar      1 GNR        -0.0825
      7 CAA        57.2300   47.9950   33.2020 C.ar      1 GNR        -0.0832
      8 CAF        56.0280   48.2600   33.8790 C.ar      1 GNR        -0.0628
      9 CAE        55.9940   49.2710   34.8450 C.ar      1 GNR         0.0395
     10 SAJ        54.4320   49.7140   35.6280 S.3       1 GNR        -0.0821
     11 CAI        55.0030   50.2990   37.2470 C.3       1 GNR         0.1269
     12 CAK        53.8700   50.8890   38.0840 C.3       1 GNR         0.0700
     13 CAL        52.9440   49.7290   38.5140 C.2       1 GNR         0.2023
     14 OAN        53.2490   48.9950   39.4450 O.2       1 GNR        -0.3968
     15 NAO        51.8630   49.5530   37.7590 N.am      1 GNR        -0.1641
     16 OAP        50.9930   48.5650   38.0470 O.3       1 GNR        -0.2717
     17 H1         58.0112   51.5103   36.2734 H         1 GNR         0.2235
     18 H2         59.2439   50.3165   34.7046 H         1 GNR         0.0480
     19 H3         59.3107   48.5297   32.9778 H         1 GNR         0.0520
     20 H4         57.2669   47.2172   32.4479 H         1 GNR         0.0470
     21 H5         55.1357   47.6867   33.6550 H         1 GNR         0.0521
     22 H6         55.4067   49.4376   37.7993 H         1 GNR         0.0704
     23 H7         53.3033   51.6175   37.4855 H         1 GNR         0.0539
     24 H8         54.2827   51.3872   38.9736 H         1 GNR         0.0539
     25 H9         51.6959   50.1541   36.9775 H         1 GNR         0.2216
     26 H10        50.2826   48.5764   37.4164 H         1 GNR         0.2490
@<TRIPOS>BOND
     1    1    2 2  
     2    2    3 am 
     3    2   11 1  
     4    3    4 1  
     5    4    5 ar 
     6    4    9 ar 
     7    5    6 ar 
     8    6    7 ar 
     9    7    8 ar 
    10    8    9 ar 
    11    9   10 1  
    12   10   11 1  
    13   11   12 1  
    14   12   13 1  
    15   13   14 2  
    16   13   15 am 
    17   15   16 1  
    18    3   17 1  
    19    5   18 1  
    20    6   19 1  
    21    7   20 1  
    22    8   21 1  
    23   11   22 1  
    24   12   23 1  
    25   12   24 1  
    26   15   25 1  
    27   16   26 1  
@<TRIPOS>SUBSTRUCTURE
     1 GNR         1

