### 
### Created by X-TOOL on Mon Sep 10 21:12:51 2018
### 

@<TRIPOS>MOLECULE
1s19_ligand
   70    73     1     0     0
SMALL
GAST_HUCK


@<TRIPOS>ATOM
      1 O2         17.0960   18.1590   34.7840 O.3       1 MC9        -0.3898
      2 O1         13.1260   17.4540   36.5350 O.3       1 MC9        -0.3798
      3 C1         14.1810   18.0370   35.6980 C.3       1 MC9         0.0864
      4 C2         14.9150   16.9590   34.7840 C.3       1 MC9         0.0102
      5 C3         16.0750   17.6280   33.8850 C.3       1 MC9         0.0660
      6 C4         15.4830   18.8070   32.9870 C.3       1 MC9        -0.0024
      7 C5         14.6780   19.8850   33.7870 C.2       1 MC9        -0.0535
      8 C6         14.8630   21.2550   33.6570 C.2       1 MC9        -0.0886
      9 C7         14.2010   22.4150   34.3140 C.2       1 MC9        -0.0795
     10 C8         13.9860   23.6240   33.8520 C.2       1 MC9        -0.0477
     11 C9         14.4350   24.1110   32.3790 C.3       1 MC9        -0.0111
     12 C10        13.6010   19.1950   34.7730 C.2       1 MC9        -0.0401
     13 C11        13.1870   24.6460   31.4910 C.3       1 MC9        -0.0386
     14 C12        12.2310   25.5920   32.3910 C.3       1 MC9        -0.0419
     15 C13        11.8140   25.1290   33.9600 C.3       1 MC9        -0.0109
     16 C14        13.2500   24.7290   34.6670 C.3       1 MC9         0.0060
     17 C15        12.6990   24.3720   36.2220 C.3       1 MC9        -0.0356
     18 C16        11.4750   25.3840   36.3800 C.3       1 MC9        -0.0449
     19 C17        11.4180   26.1800   35.0200 C.3       1 MC9        -0.0235
     20 C18        10.7870   23.7830   33.6420 C.3       1 MC9        -0.0564
     21 C19        12.2570   19.5560   34.8130 C.2       1 MC9        -0.1221
     22 C20         9.9380   26.8860   34.7250 C.3       1 MC9        -0.0237
     23 C22         8.6080   26.1550   35.0790 C.2       1 MC9        -0.0932
     24 C24         6.1080   25.6110   34.6940 C.3       1 MC9         0.0754
     25 C21         9.8650   28.2480   35.4480 C.3       1 MC9        -0.0555
     26 C25         5.5480   24.5800   33.5850 C.3       1 MC9        -0.0082
     27 C26         5.0380   25.5240   32.4720 C.3       1 MC9        -0.0458
     28 C27         4.2940   24.3490   33.2310 C.3       1 MC9        -0.0458
     29 O3          5.2530   26.7520   34.9730 O.3       1 MC9        -0.3826
     30 C23         7.5040   26.0930   34.2820 C.2       1 MC9        -0.0701
     31 H1         17.4539   17.4519   35.3078 H         1 MC9         0.2100
     32 H2         12.4696   17.0502   35.9796 H         1 MC9         0.2129
     33 H3         14.9319   18.4768   36.3708 H         1 MC9         0.0751
     34 H4         14.1738   16.4918   34.1190 H         1 MC9         0.0338
     35 H5         15.3639   16.1903   35.4303 H         1 MC9         0.0338
     36 H6         16.5189   16.8635   33.2304 H         1 MC9         0.0615
     37 H7         14.8128   18.3642   32.2355 H         1 MC9         0.0412
     38 H8         16.3211   19.3085   32.4809 H         1 MC9         0.0412
     39 H9         15.6358   21.5322   32.9416 H         1 MC9         0.0472
     40 H10        13.8427   22.2337   35.3263 H         1 MC9         0.0303
     41 H11        14.9025   23.2642   31.8553 H         1 MC9         0.0491
     42 H12        15.1666   24.9256   32.4851 H         1 MC9         0.0491
     43 H13        12.6069   23.7867   31.1234 H         1 MC9         0.0296
     44 H14        13.5693   25.2230   30.6361 H         1 MC9         0.0296
     45 H15        11.2893   25.7111   31.8351 H         1 MC9         0.0275
     46 H16        12.7350   26.5664   32.4717 H         1 MC9         0.0275
     47 H17        13.9223   25.5985   34.7117 H         1 MC9         0.0531
     48 H18        13.4767   24.5645   36.9757 H         1 MC9         0.0299
     49 H19        12.3656   23.3265   36.2978 H         1 MC9         0.0299
     50 H20        11.6484   26.0706   37.2217 H         1 MC9         0.0272
     51 H21        10.5374   24.8326   36.5437 H         1 MC9         0.0272
     52 H22        12.1698   26.9828   35.0365 H         1 MC9         0.0330
     53 H23        11.2390   23.1533   32.8615 H         1 MC9         0.0237
     54 H24         9.8057   24.1433   33.2998 H         1 MC9         0.0237
     55 H25        10.6607   23.1928   34.5616 H         1 MC9         0.0237
     56 H26        11.8877   20.3524   34.1685 H         1 MC9         0.0191
     57 H27        11.5750   19.0420   35.4888 H         1 MC9         0.0191
     58 H28         9.9099   27.0636   33.6398 H         1 MC9         0.0423
     59 H29         8.5563   25.6518   36.0434 H         1 MC9         0.0453
     60 H30         6.2056   25.0485   35.6342 H         1 MC9         0.0721
     61 H31         8.8880   28.7145   35.2535 H         1 MC9         0.0252
     62 H32        10.6653   28.9043   35.0754 H         1 MC9         0.0252
     63 H33         9.9896   28.0958   36.5303 H         1 MC9         0.0252
     64 H34         6.2605   23.7582   33.4207 H         1 MC9         0.0345
     65 H35         5.3699   25.4161   31.4289 H         1 MC9         0.0270
     66 H36         4.8039   26.5794   32.6750 H         1 MC9         0.0270
     67 H37         3.4818   24.5886   33.9330 H         1 MC9         0.0270
     68 H38         4.0478   23.4252   32.6869 H         1 MC9         0.0270
     69 H39         5.6621   27.2989   35.6333 H         1 MC9         0.2126
     70 H40         7.6256   26.4182   33.2498 H         1 MC9         0.0475
@<TRIPOS>BOND
     1    5    1 1  
     2    3    2 1  
     3    3    4 1  
     4   12    3 1  
     5    5    4 1  
     6    6    5 1  
     7    7    6 1  
     8    8    7 2  
     9    7   12 1  
    10    9    8 1  
    11   10    9 2  
    12   10   11 1  
    13   16   10 1  
    14   13   11 1  
    15   12   21 2  
    16   14   13 1  
    17   15   14 1  
    18   15   16 1  
    19   19   15 1  
    20   15   20 1  
    21   17   16 1  
    22   18   17 1  
    23   19   18 1  
    24   22   19 1  
    25   23   22 1  
    26   22   25 1  
    27   30   23 2  
    28   24   26 1  
    29   24   29 1  
    30   24   30 1  
    31   26   27 1  
    32   26   28 1  
    33   27   28 1  
    34    1   31 1  
    35    2   32 1  
    36    3   33 1  
    37    4   34 1  
    38    4   35 1  
    39    5   36 1  
    40    6   37 1  
    41    6   38 1  
    42    8   39 1  
    43    9   40 1  
    44   11   41 1  
    45   11   42 1  
    46   13   43 1  
    47   13   44 1  
    48   14   45 1  
    49   14   46 1  
    50   16   47 1  
    51   17   48 1  
    52   17   49 1  
    53   18   50 1  
    54   18   51 1  
    55   19   52 1  
    56   20   53 1  
    57   20   54 1  
    58   20   55 1  
    59   21   56 1  
    60   21   57 1  
    61   22   58 1  
    62   23   59 1  
    63   24   60 1  
    64   25   61 1  
    65   25   62 1  
    66   25   63 1  
    67   26   64 1  
    68   27   65 1  
    69   27   66 1  
    70   28   67 1  
    71   28   68 1  
    72   29   69 1  
    73   30   70 1  
@<TRIPOS>SUBSTRUCTURE
     1 MC9         1

