### 
### Created by X-TOOL on Sun Sep  9 21:50:08 2018
### 

@<TRIPOS>MOLECULE
1s3k_ligand
   91    94     1     0     0
SMALL
GAST_HUCK


@<TRIPOS>ATOM
      1 C1        -36.5030   46.2510   15.6590 C.3       1 NON         0.1884
      2 C2        -37.5680   47.2350   16.1480 C.3       1 NON         0.1341
      3 C3        -38.6740   46.4810   16.8880 C.3       1 NON         0.1140
      4 C4        -38.0680   45.6660   18.0300 C.3       1 NON         0.1095
      5 C5        -37.0060   44.7220   17.4690 C.3       1 NON         0.0873
      6 C6        -36.2940   43.9450   18.5580 C.3       1 NON        -0.0361
      7 O2        -38.1210   47.9380   15.0460 O.3       1 NON        -0.3841
      8 O3        -39.6240   47.4030   17.4030 O.3       1 NON        -0.3864
      9 O4        -37.4680   46.5450   18.9770 O.3       1 NON        -0.3866
     10 O5        -36.0010   45.4840   16.7550 O.3       1 NON        -0.3431
     11 C1        -36.4530   43.3880   13.4410 C.3       1 NON         0.1888
     12 C2        -36.0460   44.8300   13.7850 C.3       1 NON         0.1406
     13 C3        -35.9170   45.6280   12.4880 C.3       1 NON         0.1144
     14 C4        -34.8730   44.9570   11.5950 C.3       1 NON         0.1119
     15 C5        -35.3180   43.5150   11.3250 C.3       1 NON         0.1130
     16 C6        -34.3480   42.7310   10.4540 C.3       1 NON         0.0730
     17 O2        -37.0280   45.4430   14.6390 O.3       1 NON        -0.3378
     18 O3        -35.5420   46.9710   12.7630 O.3       1 NON        -0.3864
     19 O4        -33.6170   44.9550   12.2620 O.3       1 NON        -0.3865
     20 O5        -35.4620   42.7980   12.5720 O.3       1 NON        -0.3405
     21 O6        -33.0300   42.7620   10.9820 O.3       1 NON        -0.3924
     22 C1        -38.8550   39.2100   15.5750 C.3       1 NON         0.1823
     23 C2        -37.4000   38.9760   15.1180 C.3       1 NON         0.1211
     24 C3        -36.5700   40.2590   15.2520 C.3       1 NON         0.1179
     25 C4        -37.2740   41.3850   14.4910 C.3       1 NON         0.1185
     26 C5        -38.6940   41.5550   15.0590 C.3       1 NON         0.1134
     27 C6        -39.4790   42.6460   14.3660 C.3       1 NON         0.0730
     28 C7        -36.2470   36.8650   15.2440 C.2       1 NON         0.1733
     29 C8        -35.6940   35.7290   16.0890 C.3       1 NON         0.0257
     30 O         -39.4370   40.3300   14.8890 O.3       1 NON        -0.3409
     31 O3        -35.2670   40.0340   14.6830 O.3       1 NON        -0.3403
     32 O4        -36.5340   42.6230   14.6000 O.3       1 NON        -0.3401
     33 O6        -40.7200   42.8820   15.0230 O.3       1 NON        -0.3924
     34 O7        -36.1800   36.7970   14.0160 O.2       1 NON        -0.3974
     35 N2        -36.7930   37.9000   15.8790 N.am      1 NON        -0.2766
     36 O1L       -38.9070   39.4530   16.9360 O.3       1 NON        -0.3651
     37 C1        -34.2280   39.8330   15.6010 C.3       1 NON         0.1883
     38 C2        -33.0510   39.1570   14.8860 C.3       1 NON         0.1341
     39 C3        -32.5180   40.1010   13.8000 C.3       1 NON         0.1140
     40 C4        -32.1290   41.4440   14.4270 C.3       1 NON         0.1095
     41 C5        -33.3130   42.0310   15.2130 C.3       1 NON         0.0873
     42 C6        -32.9430   43.2870   15.9840 C.3       1 NON        -0.0361
     43 O2        -33.4780   37.9300   14.3050 O.3       1 NON        -0.3841
     44 O3        -31.3810   39.5200   13.1710 O.3       1 NON        -0.3864
     45 O4        -31.0280   41.2440   15.3010 O.3       1 NON        -0.3866
     46 O5        -33.7920   41.0620   16.1750 O.3       1 NON        -0.3431
     47 H         -35.6659   46.8271   15.2378 H         1 NON         0.0938
     48 H         -37.1017   47.9554   16.8362 H         1 NON         0.0671
     49 H         -39.1775   45.7995   16.1866 H         1 NON         0.0648
     50 H         -38.8579   45.0799   18.5225 H         1 NON         0.0646
     51 H         -37.4921   44.0149   16.7807 H         1 NON         0.0621
     52 H         -35.5424   43.2825   18.1041 H         1 NON         0.0255
     53 H         -37.0253   43.3418   19.1160 H         1 NON         0.0255
     54 H         -35.7975   44.6467   19.2444 H         1 NON         0.0255
     55 H         -38.5329   47.3209   14.4526 H         1 NON         0.2101
     56 H         -39.9960   47.9055   16.6877 H         1 NON         0.2100
     57 H         -38.1287   47.1319   19.3256 H         1 NON         0.2100
     58 H         -37.4303   43.3962   12.9362 H         1 NON         0.0938
     59 H         -35.0764   44.8185   14.3044 H         1 NON         0.0675
     60 H         -36.8870   45.6302   11.9693 H         1 NON         0.0648
     61 H         -34.7861   45.5041   10.6447 H         1 NON         0.0647
     62 H         -36.2920   43.5509   10.8152 H         1 NON         0.0647
     63 H         -34.3390   43.1698    9.4454 H         1 NON         0.0584
     64 H         -34.6849   41.6855   10.3961 H         1 NON         0.0584
     65 H         -34.7022   46.9795   13.2069 H         1 NON         0.2100
     66 H         -32.9707   44.5227   11.7164 H         1 NON         0.2100
     67 H         -32.7305   43.6623   11.0303 H         1 NON         0.2095
     68 H         -39.4421   38.3077   15.3489 H         1 NON         0.0932
     69 H         -37.4151   38.6842   14.0575 H         1 NON         0.0633
     70 H         -36.4706   40.5319   16.3129 H         1 NON         0.0649
     71 H         -37.3431   41.1094   13.4283 H         1 NON         0.0651
     72 H         -38.6150   41.7947   16.1296 H         1 NON         0.0647
     73 H         -39.6748   42.3428   13.3269 H         1 NON         0.0584
     74 H         -38.8874   43.5733   14.3722 H         1 NON         0.0584
     75 H         -35.8394   35.9603   17.1545 H         1 NON         0.0467
     76 H         -34.6202   35.6081   15.8833 H         1 NON         0.0467
     77 H         -36.2222   34.7966   15.8408 H         1 NON         0.0467
     78 H         -41.1918   43.5700   14.5685 H         1 NON         0.2095
     79 H         -36.7848   37.9357   16.8783 H         1 NON         0.1857
     80 H         -38.4196   40.2440   17.1342 H         1 NON         0.2126
     81 H         -34.5884   39.1757   16.4060 H         1 NON         0.0938
     82 H         -32.2517   38.9520   15.6134 H         1 NON         0.0671
     83 H         -33.3030   40.2663   13.0474 H         1 NON         0.0648
     84 H         -31.8410   42.1464   13.6310 H         1 NON         0.0646
     85 H         -34.1171   42.2723   14.5022 H         1 NON         0.0621
     86 H         -33.8261   43.6593   16.5239 H         1 NON         0.0255
     87 H         -32.5905   44.0574   15.2825 H         1 NON         0.0255
     88 H         -32.1446   43.0536   16.7038 H         1 NON         0.0255
     89 H         -32.7440   37.5165   13.8659 H         1 NON         0.2101
     90 H         -30.6991   39.3812   13.8177 H         1 NON         0.2100
     91 H         -30.2987   40.8814   14.8120 H         1 NON         0.2100
@<TRIPOS>BOND
     1    1    2 1  
     2    1   10 1  
     3   17    1 1  
     4    2    3 1  
     5    2    7 1  
     6    3    4 1  
     7    3    8 1  
     8    5    4 1  
     9    4    9 1  
    10    5    6 1  
    11   10    5 1  
    12   11   12 1  
    13   11   20 1  
    14   32   11 1  
    15   12   13 1  
    16   12   17 1  
    17   13   14 1  
    18   13   18 1  
    19   15   14 1  
    20   14   19 1  
    21   15   16 1  
    22   20   15 1  
    23   16   21 1  
    24   23   22 1  
    25   22   30 1  
    26   22   36 1  
    27   23   24 1  
    28   35   23 1  
    29   24   25 1  
    30   24   31 1  
    31   25   26 1  
    32   25   32 1  
    33   26   27 1  
    34   30   26 1  
    35   27   33 1  
    36   28   29 1  
    37   28   34 2  
    38   28   35 am 
    39   31   37 1  
    40   37   38 1  
    41   37   46 1  
    42   38   39 1  
    43   38   43 1  
    44   39   40 1  
    45   39   44 1  
    46   40   41 1  
    47   40   45 1  
    48   41   42 1  
    49   41   46 1  
    50    1   47 1  
    51    2   48 1  
    52    3   49 1  
    53    4   50 1  
    54    5   51 1  
    55    6   52 1  
    56    6   53 1  
    57    6   54 1  
    58    7   55 1  
    59    8   56 1  
    60    9   57 1  
    61   11   58 1  
    62   12   59 1  
    63   13   60 1  
    64   14   61 1  
    65   15   62 1  
    66   16   63 1  
    67   16   64 1  
    68   18   65 1  
    69   19   66 1  
    70   21   67 1  
    71   22   68 1  
    72   23   69 1  
    73   24   70 1  
    74   25   71 1  
    75   26   72 1  
    76   27   73 1  
    77   27   74 1  
    78   29   75 1  
    79   29   76 1  
    80   29   77 1  
    81   33   78 1  
    82   35   79 1  
    83   36   80 1  
    84   37   81 1  
    85   38   82 1  
    86   39   83 1  
    87   40   84 1  
    88   41   85 1  
    89   42   86 1  
    90   42   87 1  
    91   42   88 1  
    92   43   89 1  
    93   44   90 1  
    94   45   91 1  
@<TRIPOS>SUBSTRUCTURE
     1 NON         1

