### 
### Created by X-TOOL on Mon Sep 10 21:12:51 2018
### 

@<TRIPOS>MOLECULE
1s4d_ligand
   46    48     1     0     0
SMALL
GAST_HUCK


@<TRIPOS>ATOM
      1 N          81.6350   90.0850    9.8730 N.4       1 SAH         0.2327
      2 CA         82.2770   91.3110    9.4220 C.3       1 SAH         0.0291
      3 CB         83.7900   91.2960    9.6630 C.3       1 SAH         0.0114
      4 CG         84.2470   91.4610   11.1180 C.3       1 SAH         0.0005
      5 SD         86.0440   91.5690   11.3810 S.3       1 SAH        -0.1578
      6 C          81.9460   91.5410    7.9550 C.2       1 SAH         0.0844
      7 O          81.4580   90.6390    7.2710 O.co2     1 SAH        -0.5643
      8 OXT        82.1400   92.6350    7.4300 O.co2     1 SAH        -0.5643
      9 C5         86.0730   93.3900   11.3730 C.3       1 SAH         0.0226
     10 C4         86.8000   93.9460   10.1500 C.3       1 SAH         0.0995
     11 O4         85.8770   94.0850    9.0920 O.3       1 SAH        -0.3383
     12 C3         87.4220   95.3240   10.2980 C.3       1 SAH         0.1132
     13 O3         88.7430   95.3200   10.7710 O.3       1 SAH        -0.3864
     14 C2         87.3690   95.8810    8.8950 C.3       1 SAH         0.1385
     15 O2         88.4520   95.4500    8.1080 O.3       1 SAH        -0.3836
     16 C1         86.1270   95.2390    8.3310 C.3       1 SAH         0.2009
     17 N9         84.9670   96.1560    8.3730 N.pl3     1 SAH        -0.1919
     18 C8         83.8230   96.0020    9.0910 C.2       1 SAH         0.1123
     19 N7         83.0230   97.0430    8.8460 N.2       1 SAH        -0.2958
     20 C5         83.6210   97.8630    7.9700 C.ar      1 SAH         0.1045
     21 C6         83.2430   99.0680    7.3770 C.ar      1 SAH         0.1298
     22 N6         82.0750   99.6380    7.6210 N.pl3     1 SAH        -0.3152
     23 N1         84.1190   99.6820    6.5170 N.ar      1 SAH        -0.2698
     24 C2         85.3390   99.1140    6.2230 C.ar      1 SAH         0.0533
     25 N3         85.7140   97.9320    6.8070 N.ar      1 SAH        -0.2714
     26 C4         84.8610   97.3190    7.6680 C.ar      1 SAH         0.1613
     27 H1         81.8525   89.9298   10.8449 H         1 SAH         0.2010
     28 H2         81.9713   89.3085    9.3253 H         1 SAH         0.2010
     29 H3         80.6367   90.1677    9.7612 H         1 SAH         0.2010
     30 H4         81.8578   92.1465   10.0018 H         1 SAH         0.1024
     31 H5         84.2309   92.1165    9.0780 H         1 SAH         0.0347
     32 H6         84.1785   90.3343    9.2965 H         1 SAH         0.0347
     33 H7         83.8746   90.5970   11.6880 H         1 SAH         0.0379
     34 H8         83.7932   92.3827   11.5110 H         1 SAH         0.0379
     35 H9         86.5858   93.7409   12.2807 H         1 SAH         0.0402
     36 H10        85.0377   93.7616   11.3698 H         1 SAH         0.0402
     37 H11        87.5896   93.2316    9.8743 H         1 SAH         0.0632
     38 H12        86.8121   95.9348   10.9798 H         1 SAH         0.0647
     39 H13        89.2923   94.8321   10.1687 H         1 SAH         0.2100
     40 H14        87.3094   96.9794    8.9011 H         1 SAH         0.0676
     41 H15        88.3778   95.8232    7.2375 H         1 SAH         0.2101
     42 H16        86.3096   94.9548    7.2842 H         1 SAH         0.0996
     43 H17        83.5967   95.1690    9.7550 H         1 SAH         0.1349
     44 H18        81.8310  100.5283    7.1642 H         1 SAH         0.1820
     45 H19        81.4092   99.1917    8.2679 H         1 SAH         0.1820
     46 H20        86.0072   99.6052    5.5249 H         1 SAH         0.0996
@<TRIPOS>BOND
     1    1    2 1  
     2    2    3 1  
     3    2    6 1  
     4    3    4 1  
     5    4    5 1  
     6    5    9 1  
     7    6    7 ar 
     8    6    8 ar 
     9    9   10 1  
    10   10   11 1  
    11   10   12 1  
    12   11   16 1  
    13   12   13 1  
    14   12   14 1  
    15   14   15 1  
    16   14   16 1  
    17   16   17 1  
    18   17   18 1  
    19   17   26 1  
    20   18   19 2  
    21   19   20 1  
    22   20   21 ar 
    23   20   26 ar 
    24   21   22 1  
    25   21   23 ar 
    26   23   24 ar 
    27   24   25 ar 
    28   25   26 ar 
    29    1   27 1  
    30    1   28 1  
    31    1   29 1  
    32    2   30 1  
    33    3   31 1  
    34    3   32 1  
    35    4   33 1  
    36    4   34 1  
    37    9   35 1  
    38    9   36 1  
    39   10   37 1  
    40   12   38 1  
    41   13   39 1  
    42   14   40 1  
    43   15   41 1  
    44   16   42 1  
    45   18   43 1  
    46   22   44 1  
    47   22   45 1  
    48   24   46 1  
@<TRIPOS>SUBSTRUCTURE
     1 SAH         1

