### 
### Created by X-TOOL on Mon Sep 10 21:12:52 2018
### 

@<TRIPOS>MOLECULE
1s50_ligand
   18    17     1     0     0
SMALL
GAST_HUCK


@<TRIPOS>ATOM
      1 N          11.2350    2.0370   -1.4510 N.4       1 GLU         0.2328
      2 CA         11.2960    3.4810   -1.8360 C.3       1 GLU         0.0298
      3 C          12.6620    3.8100   -2.4330 C.2       1 GLU         0.0845
      4 O          13.3860    2.8550   -2.8120 O.co2     1 GLU        -0.5643
      5 CB         11.0320    4.3670   -0.6100 C.3       1 GLU         0.0139
      6 CG          9.5570    4.5100   -0.2210 C.3       1 GLU         0.0069
      7 CD          8.7420    5.2660   -1.2640 C.2       1 GLU         0.0351
      8 OE1         9.3340    6.0960   -1.9860 O.co2     1 GLU        -0.5690
      9 OE2         7.5140    5.0450   -1.3470 O.co2     1 GLU        -0.5690
     10 OXT        12.9950    5.0120   -2.5170 O.co2     1 GLU        -0.5643
     11 H1         10.3295    1.8319   -1.0585 H         1 GLU         0.2010
     12 H2         11.9496    1.8410   -0.7676 H         1 GLU         0.2010
     13 H3         11.3847    1.4650   -2.2673 H         1 GLU         0.2010
     14 H4         10.5213    3.6796   -2.5912 H         1 GLU         0.1025
     15 H5         11.4278    5.3710   -0.8228 H         1 GLU         0.0356
     16 H6         11.5704    3.9344    0.2461 H         1 GLU         0.0356
     17 H7          9.4963    5.0530    0.7337 H         1 GLU         0.0433
     18 H8          9.1265    3.5051   -0.0993 H         1 GLU         0.0433
@<TRIPOS>BOND
     1    1    2 1  
     2    2    3 1  
     3    2    5 1  
     4    3    4 ar 
     5    3   10 ar 
     6    5    6 1  
     7    6    7 1  
     8    7    8 ar 
     9    7    9 ar 
    10    1   11 1  
    11    1   12 1  
    12    1   13 1  
    13    2   14 1  
    14    5   15 1  
    15    5   16 1  
    16    6   17 1  
    17    6   18 1  
@<TRIPOS>SUBSTRUCTURE
     1 GLU         1

