### 
### Created by X-TOOL on Fri Sep 26 17:34:25 2014
### 

@<TRIPOS>MOLECULE
1s63_ligand
   50    53     1     0     0
SMALL
GAST_HUCK


@<TRIPOS>ATOM
      1 N1         18.5610  135.2050   -0.0600 N.4       1 MOL         0.2671
      2 C2         17.2650  135.6440    0.4650 C.3       1 MOL        -0.0025
      3 C3         19.7520  135.2070    0.7900 C.3       1 MOL         0.0258
      4 C4         18.9500  135.8920   -1.2990 C.3       1 MOL         0.0656
      5 C5         16.3280  135.0430   -0.5960 C.3       1 MOL         0.0955
      6 C7         19.5950  134.1260    1.8570 C.2       1 MOL         0.1013
      7 C8         17.8720  135.6640   -2.4020 C.2       1 MOL         0.2517
      8 N9         16.5930  135.2440   -2.0230 N.am      1 MOL        -0.2105
      9 N11        20.1020  132.8670    1.7040 N.pl3     1 MOL        -0.2305
     10 C12        18.9610  134.2450    3.0400 C.2       1 MOL        -0.0222
     11 O13        18.1540  135.8470   -3.5710 O.2       1 MOL        -0.3788
     12 C14        15.5650  135.0040   -2.9070 C.ar      1 MOL         0.0699
     13 C16        20.8650  132.3200    0.5570 C.3       1 MOL         0.0961
     14 C17        19.8100  132.1530    2.7740 C.2       1 MOL         0.0924
     15 N18        19.0960  132.9550    3.6550 N.2       1 MOL        -0.3433
     16 C20        15.0300  133.7270   -2.8320 C.ar      1 MOL        -0.0273
     17 C21        15.0300  135.9470   -3.8520 C.ar      1 MOL        -0.0409
     18 C25        20.0510  132.2060   -0.7400 C.ar      1 MOL        -0.0031
     19 C26        13.9770  133.3250   -3.6540 C.ar      1 MOL         0.0270
     20 C27        13.9670  135.5450   -4.6930 C.ar      1 MOL        -0.0750
     21 C28        20.6160  132.5930   -1.9770 C.ar      1 MOL        -0.0459
     22 C29        18.7370  131.7180   -0.7350 C.ar      1 MOL        -0.0459
     23 C30        13.4400  134.2320   -4.5910 C.ar      1 MOL        -0.0633
     24 CL31       13.3840  131.7160   -3.4630 Cl        1 MOL        -0.0748
     25 C32        19.8810  132.4840   -3.1800 C.ar      1 MOL        -0.0333
     26 C33        18.0080  131.6100   -1.9240 C.ar      1 MOL        -0.0333
     27 C34        18.5870  131.9950   -3.1560 C.ar      1 MOL         0.0883
     28 C35        17.8950  131.8790   -4.2840 C.1       1 MOL         0.0934
     29 N36        17.2860  131.7730   -5.2800 N.1       1 MOL        -0.3338
     30 H1         18.4088  134.2379   -0.3000 H         1 MOL         0.2070
     31 H2         17.1899  136.7408    0.5014 H         1 MOL         0.0840
     32 H3         17.0682  135.2296    1.4648 H         1 MOL         0.0840
     33 H4         19.8608  136.1897    1.2722 H         1 MOL         0.0998
     34 H5         20.6427  134.9975    0.1794 H         1 MOL         0.0998
     35 H6         19.9152  135.4954   -1.6468 H         1 MOL         0.1068
     36 H7         19.0460  136.9700   -1.1021 H         1 MOL         0.1068
     37 H8         15.3265  135.4538   -0.4008 H         1 MOL         0.0639
     38 H9         16.3177  133.9560   -0.4277 H         1 MOL         0.0639
     39 H10        18.4582  135.1241    3.4404 H         1 MOL         0.0326
     40 H11        21.2248  131.3165    0.8284 H         1 MOL         0.0806
     41 H12        21.7251  132.9793    0.3682 H         1 MOL         0.0806
     42 H13        20.0825  131.1116    2.9387 H         1 MOL         0.1152
     43 H14        15.4403  133.0234   -2.1167 H         1 MOL         0.0507
     44 H15        15.4354  136.9501   -3.9184 H         1 MOL         0.0504
     45 H16        13.5548  136.2400   -5.4156 H         1 MOL         0.0577
     46 H17        21.6285  132.9793   -2.0035 H         1 MOL         0.0584
     47 H18        18.2800  131.4206    0.2019 H         1 MOL         0.0584
     48 H19        12.6232  133.9253   -5.2343 H         1 MOL         0.0493
     49 H20        20.3308  132.7832   -4.1198 H         1 MOL         0.0701
     50 H21        16.9934  131.2290   -1.9012 H         1 MOL         0.0701
@<TRIPOS>BOND
     1    1    2 1  
     2    1    3 1  
     3    1    4 1  
     4    2    5 1  
     5    3    6 1  
     6    4    7 1  
     7    5    8 1  
     8    6    9 1  
     9    6   10 2  
    10    7    8 am 
    11    7   11 2  
    12    8   12 1  
    13    9   13 1  
    14    9   14 1  
    15   10   15 1  
    16   12   16 ar 
    17   12   17 ar 
    18   13   18 1  
    19   14   15 2  
    20   16   19 ar 
    21   17   20 ar 
    22   18   21 ar 
    23   18   22 ar 
    24   19   23 ar 
    25   19   24 1  
    26   20   23 ar 
    27   21   25 ar 
    28   22   26 ar 
    29   25   27 ar 
    30   26   27 ar 
    31   27   28 1  
    32   28   29 3  
    33    1   30 1  
    34    2   31 1  
    35    2   32 1  
    36    3   33 1  
    37    3   34 1  
    38    4   35 1  
    39    4   36 1  
    40    5   37 1  
    41    5   38 1  
    42   10   39 1  
    43   13   40 1  
    44   13   41 1  
    45   14   42 1  
    46   16   43 1  
    47   17   44 1  
    48   20   45 1  
    49   21   46 1  
    50   22   47 1  
    51   23   48 1  
    52   25   49 1  
    53   26   50 1  
@<TRIPOS>SUBSTRUCTURE
     1 MOL         1

