### 
### Created by X-TOOL on Mon Sep 10 21:12:51 2018
### 

@<TRIPOS>MOLECULE
1s64_ligand
   50    53     1     0     0
SMALL
GAST_HUCK


@<TRIPOS>ATOM
      1 N1         29.9290   90.2660   63.5610 N.4       1 778         0.2671
      2 C2         30.3220   89.3280   64.6290 C.3       1 778        -0.0025
      3 C3         28.5150   90.5410   63.3000 C.3       1 778         0.0258
      4 C4         30.4760   89.9420   62.2280 C.3       1 778         0.0656
      5 C5         31.8420   89.5790   64.7200 C.3       1 778         0.0955
      6 C7         27.7940   91.1470   64.5070 C.2       1 778         0.1013
      7 C8         32.0220   89.6180   62.2620 C.2       1 778         0.2517
      8 N9         32.6800   89.4250   63.5250 N.am      1 778        -0.2105
      9 N11        27.8360   92.5000   64.8060 N.pl3     1 778        -0.2305
     10 C12        27.0460   90.4840   65.4150 C.2       1 778        -0.0222
     11 O13        32.6120   89.4690   61.1980 O.2       1 778        -0.3788
     12 C14        34.0680   89.1790   63.7160 C.ar      1 778         0.0699
     13 C16        28.5530   93.6010   64.0680 C.3       1 778         0.0961
     14 C17        27.1110   92.7200   65.9090 C.2       1 778         0.0924
     15 N18        26.5880   91.5040   66.3440 N.2       1 778        -0.3433
     16 C20        34.7000   88.2070   62.8640 C.ar      1 778        -0.0273
     17 C21        34.8790   89.8470   64.7210 C.ar      1 778        -0.0409
     18 C25        30.1000   93.5400   64.2140 C.ar      1 778        -0.0031
     19 C26        36.0850   87.8990   62.9940 C.ar      1 778         0.0270
     20 C27        36.2720   89.5330   64.8480 C.ar      1 778        -0.0750
     21 C28        30.9490   93.6930   63.0610 C.ar      1 778        -0.0459
     22 C29        30.7260   93.3230   65.4900 C.ar      1 778        -0.0459
     23 C30        36.8700   88.5630   63.9890 C.ar      1 778        -0.0633
     24 CL31       36.7750   86.7320   61.9500 Cl        1 778        -0.0748
     25 C32        32.3790   93.6320   63.1810 C.ar      1 778        -0.0333
     26 C33        32.1440   93.2620   65.6140 C.ar      1 778        -0.0333
     27 C34        32.9740   93.4180   64.4470 C.ar      1 778         0.0883
     28 C35        34.2820   93.3640   64.5530 C.1       1 778         0.0934
     29 N36        35.4410   93.3150   64.6460 N.1       1 778        -0.3338
     30 H1         30.3353   91.1436   63.8451 H         1 778         0.2070
     31 H2         30.1033   88.2869   64.3492 H         1 778         0.0840
     32 H3         29.8186   89.5662   65.5776 H         1 778         0.0840
     33 H4         28.0175   89.5974   63.0313 H         1 778         0.0998
     34 H5         28.4439   91.2457   62.4584 H         1 778         0.0998
     35 H6         30.3119   90.8022   61.5623 H         1 778         0.1068
     36 H7         29.9420   89.0653   61.8327 H         1 778         0.1068
     37 H8         32.2349   88.8834   65.4761 H         1 778         0.0639
     38 H9         31.9735   90.6135   65.0699 H         1 778         0.0639
     39 H10        26.8322   89.4166   65.4448 H         1 778         0.0326
     40 H11        28.2041   94.5677   64.4601 H         1 778         0.0806
     41 H12        28.3008   93.5260   62.9999 H         1 778         0.0806
     42 H13        26.9559   93.6865   66.3862 H         1 778         0.1152
     43 H14        34.1111   87.6993   62.1087 H         1 778         0.0507
     44 H15        34.4292   90.5844   65.3760 H         1 778         0.0504
     45 H16        36.8727   90.0338   65.5986 H         1 778         0.0577
     46 H17        30.5019   93.8568   62.0872 H         1 778         0.0584
     47 H18        30.1085   93.2038   66.3729 H         1 778         0.0584
     48 H19        37.9234   88.3282   64.0907 H         1 778         0.0493
     49 H20        33.0023   93.7499   62.3020 H         1 778         0.0701
     50 H21        32.5975   93.0985   66.5849 H         1 778         0.0701
@<TRIPOS>BOND
     1    1    2 1  
     2    1    3 1  
     3    1    4 1  
     4    2    5 1  
     5    3    6 1  
     6    4    7 1  
     7    5    8 1  
     8    6    9 1  
     9    6   10 2  
    10    7    8 am 
    11    7   11 2  
    12    8   12 1  
    13    9   13 1  
    14    9   14 1  
    15   10   15 1  
    16   12   16 ar 
    17   12   17 ar 
    18   13   18 1  
    19   14   15 2  
    20   16   19 ar 
    21   17   20 ar 
    22   18   21 ar 
    23   18   22 ar 
    24   19   23 ar 
    25   19   24 1  
    26   20   23 ar 
    27   21   25 ar 
    28   22   26 ar 
    29   25   27 ar 
    30   26   27 ar 
    31   27   28 1  
    32   28   29 3  
    33    1   30 1  
    34    2   31 1  
    35    2   32 1  
    36    3   33 1  
    37    3   34 1  
    38    4   35 1  
    39    4   36 1  
    40    5   37 1  
    41    5   38 1  
    42   10   39 1  
    43   13   40 1  
    44   13   41 1  
    45   14   42 1  
    46   16   43 1  
    47   17   44 1  
    48   20   45 1  
    49   21   46 1  
    50   22   47 1  
    51   23   48 1  
    52   25   49 1  
    53   26   50 1  
@<TRIPOS>SUBSTRUCTURE
     1 778         1

