### 
### Created by X-TOOL on Mon Sep 10 21:12:53 2018
### 

@<TRIPOS>MOLECULE
1s9t_ligand
   20    20     1     0     0
SMALL
GAST_HUCK


@<TRIPOS>ATOM
      1 C01        32.8100   13.5360   39.4970 C.2       1 QUS         0.0866
      2 C02        33.0680   14.4890   38.3090 C.3       1 QUS         0.0520
      3 C03        34.5520   14.8980   38.3650 C.3       1 QUS         0.1233
      4 C04        35.0340   14.2410   35.9650 C.2       1 QUS         0.3201
      5 C05        34.4400   16.2330   35.1590 C.2       1 QUS         0.3771
      6 NP3        32.0570   15.5950   38.4350 N.4       1 QUS         0.2342
      7 N14        35.0990   15.1350   37.0180 N.am      1 QUS        -0.0915
      8 N15        34.6380   14.9360   34.8770 N.am      1 QUS        -0.1566
      9 O16        31.8790   13.7860   40.2880 O.co2     1 QUS        -0.5642
     10 O17        33.5670   12.5240   39.6130 O.co2     1 QUS        -0.5642
     11 O18        35.2950   13.0690   36.0770 O.2       1 QUS        -0.3935
     12 O19        34.0890   17.1520   34.4460 O.2       1 QUS        -0.3705
     13 O20        34.7110   16.4180   36.4920 O.3       1 QUS        -0.1145
     14 H1         32.8929   13.9670   37.3567 H         1 QUS         0.1046
     15 H2         35.1264   14.0933   38.8473 H         1 QUS         0.0630
     16 H3         34.6462   15.8208   38.9562 H         1 QUS         0.0630
     17 H4         31.1276   15.2080   38.3844 H         1 QUS         0.2011
     18 H5         32.1869   16.2561   37.6852 H         1 QUS         0.2011
     19 H6         32.1787   16.0623   39.3198 H         1 QUS         0.2011
     20 H7         34.5081   14.5331   33.9710 H         1 QUS         0.2278
@<TRIPOS>BOND
     1    1    2 1  
     2    1    9 ar 
     3    1   10 ar 
     4    2    3 1  
     5    2    6 1  
     6    3    7 1  
     7    7    4 am 
     8    4    8 am 
     9    4   11 2  
    10    8    5 am 
    11    5   12 2  
    12    5   13 1  
    13    7   13 1  
    14    2   14 1  
    15    3   15 1  
    16    3   16 1  
    17    6   17 1  
    18    6   18 1  
    19    6   19 1  
    20    8   20 1  
@<TRIPOS>SUBSTRUCTURE
     1 QUS         1

