### 
### Created by X-TOOL on Mon Sep 10 21:12:51 2018
### 

@<TRIPOS>MOLECULE
1sb1_ligand
   78    82     1     0     0
SMALL
GAST_HUCK


@<TRIPOS>ATOM
      1 N19        10.2600  -13.7020   15.0490 N.am      1 165        -0.2502
      2 C23        10.5710  -12.3900   15.6190 C.3       1 165         0.1336
      3 C22         9.5900  -12.6210   16.8250 C.3       1 165        -0.0104
      4 C21         8.4750  -13.4070   16.2010 C.3       1 165        -0.0281
      5 C20         9.3230  -14.5840   15.7800 C.3       1 165         0.0369
      6 C24        11.9710  -12.1810   16.1990 C.2       1 165         0.2022
      7 O39        12.0720  -11.4380   17.1950 O.2       1 165        -0.3945
      8 N25        13.0980  -12.8640   15.5190 N.am      1 165        -0.2803
      9 C26        14.4890  -12.6600   16.0300 C.3       1 165         0.0498
     10 C31        14.9880  -11.3300   15.3740 C.3       1 165         0.0015
     11 C30        15.8590  -11.4800   14.1330 C.2       1 165         0.0111
     12 S34        16.2950  -10.0690   13.2480 S.3       1 165         0.0038
     13 C33        17.1920  -11.1080   12.0590 C.2       1 165         0.1664
     14 N35        17.8310  -10.5530   10.9810 N.pl3     1 165        -0.3032
     15 N32        17.1310  -12.3740   12.3690 N.2       1 165        -0.3302
     16 C29        16.3400  -12.6680   13.5960 C.2       1 165        -0.0306
     17 C28        16.0970  -14.0550   14.1900 C.3       1 165        -0.0296
     18 C27        15.3730  -14.0020   15.6670 C.3       1 165        -0.0232
     19 C18        10.7970  -14.1300   13.6970 C.2       1 165         0.2025
     20 O38        11.5270  -13.3320   13.0290 O.2       1 165        -0.3946
     21 C10        10.3460  -15.5480   13.1120 C.3       1 165         0.1266
     22 N9         11.3260  -16.4730   13.9990 N.am      1 165        -0.2281
     23 S8         13.0050  -16.7040   13.7760 S.o2      1 165         0.0511
     24 O36        13.7590  -16.6480   12.5800 O.2       1 165        -0.1532
     25 O37        13.5390  -17.4550   14.8680 O.2       1 165        -0.1532
     26 C7         12.2270  -18.2760   13.0680 C.3       1 165         0.1181
     27 C5         13.1590  -19.2610   12.3180 C.ar      1 165        -0.0204
     28 C6         12.9240  -19.3990   10.8450 C.ar      1 165        -0.0587
     29 C1         13.7790  -20.2810   10.0350 C.ar      1 165        -0.0685
     30 C2         14.8920  -21.0430   10.6850 C.ar      1 165        -0.0687
     31 C3         15.1210  -20.9160   12.1410 C.ar      1 165        -0.0685
     32 C4         14.2450  -20.0120   12.9740 C.ar      1 165        -0.0587
     33 C11        10.6100  -15.6370   11.5500 C.3       1 165        -0.0131
     34 C12         9.1870  -14.7650   11.1570 C.3       1 165        -0.0372
     35 C13         7.7460  -15.5260   11.5660 C.3       1 165        -0.0500
     36 C14         6.4220  -14.6620   11.2240 C.3       1 165        -0.0528
     37 C15         6.4480  -14.0050    9.7640 C.3       1 165        -0.0530
     38 C16         7.8460  -13.3470    9.3730 C.3       1 165        -0.0528
     39 C17         9.0690  -14.3320    9.6570 C.3       1 165        -0.0500
     40 H1         10.3090  -11.5567   14.9504 H         1 165         0.0802
     41 H2          9.2240  -11.6647   17.2267 H         1 165         0.0313
     42 H3         10.0772  -13.1936   17.6280 H         1 165         0.0313
     43 H4          8.0159  -12.8877   15.3469 H         1 165         0.0287
     44 H5          7.6942  -13.6838   16.9246 H         1 165         0.0287
     45 H6          9.7853  -15.1200   16.6220 H         1 165         0.0524
     46 H7          8.7952  -15.3012   15.1342 H         1 165         0.0524
     47 H8         12.9302  -13.4535   14.7288 H         1 165         0.1856
     48 H9         14.4804  -12.5360   17.1229 H         1 165         0.0575
     49 H10        15.5701  -10.7809   16.1287 H         1 165         0.0407
     50 H11        14.1025  -10.7407   15.0937 H         1 165         0.0407
     51 H12        18.3357  -11.1554   10.3152 H         1 165         0.1838
     52 H13        17.8065   -9.5335   10.8366 H         1 165         0.1838
     53 H14        17.0649  -14.5676   14.2919 H         1 165         0.0362
     54 H15        15.4520  -14.6227   13.5033 H         1 165         0.0362
     55 H16        14.6998  -14.8692   15.7358 H         1 165         0.0304
     56 H17        16.1644  -14.0911   16.4258 H         1 165         0.0304
     57 H18         9.2867  -15.7662   13.3125 H         1 165         0.0753
     58 H19        10.9057  -16.9644   14.7618 H         1 165         0.1703
     59 H20        11.4405  -17.9661   12.3641 H         1 165         0.0682
     60 H21        11.7734  -18.8253   13.9061 H         1 165         0.0682
     61 H22        12.1197  -18.8461   10.3733 H         1 165         0.0557
     62 H23        13.6035  -20.3789    8.9698 H         1 165         0.0599
     63 H24        15.5291  -21.6868   10.0895 H         1 165         0.0559
     64 H25        15.9217  -21.4748   12.6119 H         1 165         0.0599
     65 H26        14.4122  -19.9162   14.0407 H         1 165         0.0557
     66 H27        10.6092  -16.6678   11.1661 H         1 165         0.0311
     67 H28        11.5332  -15.1290   11.2346 H         1 165         0.0311
     68 H29         9.2391  -13.8414   11.7522 H         1 165         0.0303
     69 H30         7.7568  -15.7279   12.6473 H         1 165         0.0268
     70 H31         7.6894  -16.4769   11.0160 H         1 165         0.0268
     71 H32         6.3306  -13.8560   11.9669 H         1 165         0.0265
     72 H33         5.5466  -15.3245   11.2921 H         1 165         0.0265
     73 H34         5.6747  -13.2238    9.7226 H         1 165         0.0265
     74 H35         6.2171  -14.7891    9.0279 H         1 165         0.0265
     75 H36         7.9844  -12.4293    9.9634 H         1 165         0.0265
     76 H37         7.8334  -13.0957    8.3022 H         1 165         0.0265
     77 H38         8.9382  -15.2353    9.0431 H         1 165         0.0268
     78 H39        10.0002  -13.8233    9.3672 H         1 165         0.0268
@<TRIPOS>BOND
     1    1    2 1  
     2    1    5 1  
     3    1   19 am 
     4    2    3 1  
     5    2    6 1  
     6    3    4 1  
     7    5    4 1  
     8    6    7 2  
     9    6    8 am 
    10    8    9 1  
    11    9   10 1  
    12    9   18 1  
    13   10   11 1  
    14   11   12 1  
    15   11   16 2  
    16   12   13 1  
    17   13   14 1  
    18   13   15 2  
    19   16   15 1  
    20   16   17 1  
    21   18   17 1  
    22   19   20 2  
    23   19   21 1  
    24   21   22 1  
    25   21   33 1  
    26   22   23 am 
    27   23   24 2  
    28   23   25 2  
    29   23   26 1  
    30   26   27 1  
    31   27   28 ar 
    32   27   32 ar 
    33   28   29 ar 
    34   29   30 ar 
    35   30   31 ar 
    36   32   31 ar 
    37   33   34 1  
    38   34   35 1  
    39   34   39 1  
    40   35   36 1  
    41   36   37 1  
    42   37   38 1  
    43   38   39 1  
    44    2   40 1  
    45    3   41 1  
    46    3   42 1  
    47    4   43 1  
    48    4   44 1  
    49    5   45 1  
    50    5   46 1  
    51    8   47 1  
    52    9   48 1  
    53   10   49 1  
    54   10   50 1  
    55   14   51 1  
    56   14   52 1  
    57   17   53 1  
    58   17   54 1  
    59   18   55 1  
    60   18   56 1  
    61   21   57 1  
    62   22   58 1  
    63   26   59 1  
    64   26   60 1  
    65   28   61 1  
    66   29   62 1  
    67   30   63 1  
    68   31   64 1  
    69   32   65 1  
    70   33   66 1  
    71   33   67 1  
    72   34   68 1  
    73   35   69 1  
    74   35   70 1  
    75   36   71 1  
    76   36   72 1  
    77   37   73 1  
    78   37   74 1  
    79   38   75 1  
    80   38   76 1  
    81   39   77 1  
    82   39   78 1  
@<TRIPOS>SUBSTRUCTURE
     1 165         1

