### 
### Created by X-TOOL on Mon Sep 10 21:12:45 2018
### 

@<TRIPOS>MOLECULE
1sbg_ligand
   81    83     1     0     0
SMALL
GAST_HUCK


@<TRIPOS>ATOM
      1 C1         -9.3770   16.1320   32.9290 C.3       1 IM1         0.0905
      2 C2         -8.1940   15.2270   33.2470 C.3       1 IM1        -0.0320
      3 C3         -8.8030   17.3840   32.3150 C.3       1 IM1        -0.0320
      4 C4         -9.9550   16.4170   34.3030 C.3       1 IM1        -0.0320
      5 O5        -10.3690   15.5620   32.1090 O.3       1 IM1        -0.2581
      6 C6        -10.3410   15.5740   30.6980 C.2       1 IM1         0.3204
      7 O7         -9.4330   14.9910   30.0760 O.2       1 IM1        -0.3775
      8 N8        -11.2880   16.2180   29.9740 N.am      1 IM1        -0.2550
      9 C9        -11.2530   16.2170   28.4840 C.3       1 IM1         0.0794
     10 C10       -12.6630   15.8180   27.9700 C.3       1 IM1         0.0064
     11 C11       -13.1940   14.6250   28.7790 C.ar      1 IM1        -0.0408
     12 C12       -12.5660   13.3720   28.6980 C.ar      1 IM1        -0.0603
     13 C13       -12.9720   12.3190   29.5260 C.ar      1 IM1        -0.0686
     14 C14       -14.0090   12.5140   30.4280 C.ar      1 IM1        -0.0687
     15 C15       -14.6490   13.7610   30.5080 C.ar      1 IM1        -0.0686
     16 C16       -14.2500   14.8170   29.6910 C.ar      1 IM1        -0.0603
     17 C17       -10.7480   17.4760   27.7290 C.3       1 IM1         0.0823
     18 O18       -11.1280   18.6940   28.3500 O.3       1 IM1        -0.3892
     19 C19        -9.2750   17.4280   27.8840 C.3       1 IM1        -0.0029
     20 C20        -8.3950   18.0100   26.8520 C.3       1 IM1         0.0607
     21 C21        -7.0860   18.3190   27.6090 C.3       1 IM1         0.0007
     22 C22        -5.8530   18.5510   26.7390 C.ar      1 IM1        -0.0405
     23 C23        -5.6750   19.7570   26.0430 C.ar      1 IM1        -0.0602
     24 C24        -4.5370   19.9130   25.2450 C.ar      1 IM1        -0.0686
     25 C25        -3.5820   18.8760   25.1420 C.ar      1 IM1        -0.0687
     26 C26        -3.7630   17.6880   25.8340 C.ar      1 IM1        -0.0686
     27 C27        -4.8960   17.5280   26.6290 C.ar      1 IM1        -0.0602
     28 C28        -8.2370   17.0300   25.6550 C.2       1 IM1         0.1836
     29 O29        -8.2100   15.7820   25.7390 O.2       1 IM1        -0.3964
     30 N30        -8.1120   17.6080   24.4690 N.am      1 IM1        -0.2660
     31 C31        -7.9260   16.8390   23.2670 C.3       1 IM1         0.1193
     32 C32        -9.2330   16.6760   22.5340 C.3       1 IM1        -0.0078
     33 C33        -9.0190   16.6450   21.0380 C.3       1 IM1        -0.0583
     34 C34        -9.8750   15.3700   23.0100 C.3       1 IM1        -0.0583
     35 C35        -6.9600   17.7470   22.5340 C.2       1 IM1         0.1379
     36 N36        -7.1040   19.0700   22.4050 N.2       1 IM1        -0.3371
     37 C37        -5.9450   19.3470   21.8490 C.2       1 IM1        -0.0367
     38 C38        -5.1310   18.2030   21.6420 C.2       1 IM1         0.0252
     39 N39        -5.8300   17.1880   22.1020 N.pl3     1 IM1        -0.2628
     40 H1         -7.4823   15.7661   33.8895 H         1 IM1         0.0260
     41 H2         -7.6945   14.9342   32.3117 H         1 IM1         0.0260
     42 H3         -8.5507   14.3272   33.7695 H         1 IM1         0.0260
     43 H4         -8.0335   17.7999   32.9820 H         1 IM1         0.0260
     44 H5         -9.6046   18.1239   32.1738 H         1 IM1         0.0260
     45 H6         -8.3521   17.1415   31.3414 H         1 IM1         0.0260
     46 H7         -9.1784   16.8623   34.9423 H         1 IM1         0.0260
     47 H8        -10.3075   15.4779   34.7545 H         1 IM1         0.0260
     48 H9        -10.7979   17.1174   34.2082 H         1 IM1         0.0260
     49 H10       -12.0234   16.7025   30.4477 H         1 IM1         0.1873
     50 H11       -10.5573   15.4123   28.2038 H         1 IM1         0.0604
     51 H12       -12.5990   15.5393   26.9078 H         1 IM1         0.0449
     52 H13       -13.3482   16.6708   28.0847 H         1 IM1         0.0449
     53 H14       -11.7606   13.2188   27.9888 H         1 IM1         0.0557
     54 H15       -12.4789   11.3557   29.4632 H         1 IM1         0.0599
     55 H16       -14.3254   11.7015   31.0721 H         1 IM1         0.0559
     56 H17       -15.4610   13.9037   31.2118 H         1 IM1         0.0599
     57 H18       -14.7479   15.7776   29.7568 H         1 IM1         0.0557
     58 H19       -11.0664   17.4566   26.6763 H         1 IM1         0.0619
     59 H20       -10.7002   19.4193   27.9102 H         1 IM1         0.2099
     60 H21        -9.0013   16.3660   27.9695 H         1 IM1         0.0320
     61 H22        -9.0400   17.9443   28.8265 H         1 IM1         0.0320
     62 H23        -8.8252   18.9479   26.4708 H         1 IM1         0.0561
     63 H24        -6.8735   17.4703   28.2757 H         1 IM1         0.0453
     64 H25        -7.2499   19.2255   28.2102 H         1 IM1         0.0453
     65 H26        -6.4064   20.5531   26.1226 H         1 IM1         0.0557
     66 H27        -4.3859   20.8380   24.7003 H         1 IM1         0.0599
     67 H28        -2.7047   19.0099   24.5196 H         1 IM1         0.0559
     68 H29        -3.0308   16.8923   25.7572 H         1 IM1         0.0599
     69 H30        -5.0414   16.6004   27.1708 H         1 IM1         0.0557
     70 H31        -8.1479   18.6055   24.4077 H         1 IM1         0.1887
     71 H32        -7.4873   15.8505   23.4679 H         1 IM1         0.0796
     72 H33        -9.8948   17.5197   22.7791 H         1 IM1         0.0345
     73 H34        -9.9881   16.5255   20.5314 H         1 IM1         0.0235
     74 H35        -8.3632   15.8008   20.7788 H         1 IM1         0.0235
     75 H36        -8.5501   17.5862   20.7151 H         1 IM1         0.0235
     76 H37       -10.0232   15.4100   24.0992 H         1 IM1         0.0235
     77 H38        -9.2161   14.5253   22.7604 H         1 IM1         0.0235
     78 H39       -10.8469   15.2365   22.5124 H         1 IM1         0.0235
     79 H40        -5.6396   20.3556   21.5743 H         1 IM1         0.0408
     80 H41        -4.1378   18.1720   21.1965 H         1 IM1         0.0794
     81 H42        -5.5655   16.1928   22.1233 H         1 IM1         0.2372
@<TRIPOS>BOND
     1    1    5 1  
     2    1    4 1  
     3    1    3 1  
     4    1    2 1  
     5    5    6 1  
     6    6    8 am 
     7    6    7 2  
     8    8    9 1  
     9    9   17 1  
    10    9   10 1  
    11   10   11 1  
    12   11   16 ar 
    13   11   12 ar 
    14   12   13 ar 
    15   13   14 ar 
    16   14   15 ar 
    17   15   16 ar 
    18   17   19 1  
    19   17   18 1  
    20   19   20 1  
    21   20   28 1  
    22   20   21 1  
    23   21   22 1  
    24   22   27 ar 
    25   22   23 ar 
    26   23   24 ar 
    27   24   25 ar 
    28   25   26 ar 
    29   26   27 ar 
    30   28   30 am 
    31   28   29 2  
    32   30   31 1  
    33   31   35 1  
    34   31   32 1  
    35   32   34 1  
    36   32   33 1  
    37   35   39 1  
    38   35   36 2  
    39   36   37 1  
    40   37   38 2  
    41   38   39 1  
    42    2   40 1  
    43    2   41 1  
    44    2   42 1  
    45    3   43 1  
    46    3   44 1  
    47    3   45 1  
    48    4   46 1  
    49    4   47 1  
    50    4   48 1  
    51    8   49 1  
    52    9   50 1  
    53   10   51 1  
    54   10   52 1  
    55   12   53 1  
    56   13   54 1  
    57   14   55 1  
    58   15   56 1  
    59   16   57 1  
    60   17   58 1  
    61   18   59 1  
    62   19   60 1  
    63   19   61 1  
    64   20   62 1  
    65   21   63 1  
    66   21   64 1  
    67   23   65 1  
    68   24   66 1  
    69   25   67 1  
    70   26   68 1  
    71   27   69 1  
    72   30   70 1  
    73   31   71 1  
    74   32   72 1  
    75   33   73 1  
    76   33   74 1  
    77   33   75 1  
    78   34   76 1  
    79   34   77 1  
    80   34   78 1  
    81   37   79 1  
    82   38   80 1  
    83   39   81 1  
@<TRIPOS>SUBSTRUCTURE
     1 IM1         1

