### 
### Created by X-TOOL on Fri Sep 26 17:34:27 2014
### 

@<TRIPOS>MOLECULE
1sbr_ligand
   35    36     1     0     0
SMALL
GAST_HUCK


@<TRIPOS>ATOM
      1 CM2        11.6510   41.9440    4.2410 C.3       1 VIB        -0.0029
      2 N4A        14.7650   43.9370    7.2660 N.pl3     1 VIB        -0.3187
      3 CM4        16.0560   46.2700    3.0440 C.3       1 VIB         0.0228
      4 O1         19.4780   44.7750    1.5790 O.3       1 VIB        -0.3891
      5 C7         19.2880   44.6420    2.9730 C.3       1 VIB         0.0735
      6 C6         19.1850   46.0630    3.4720 C.3       1 VIB         0.0775
      7 C2         17.0440   46.2030    6.5290 C.2       1 VIB         0.1352
      8 S1         18.6850   46.0750    6.1150 S.3       1 VIB         0.1156
      9 C5         18.1240   46.1150    4.5530 C.2       1 VIB         0.1726
     10 C4         16.7810   46.2280    4.3750 C.2       1 VIB         0.1309
     11 N3         16.1740   46.2730    5.5450 N.2       1 VIB        -0.2745
     12 C7A        14.8560   46.3420    5.7470 C.3       1 VIB         0.0562
     13 C4A        14.0620   44.1140    6.1350 C.ar      1 VIB         0.1223
     14 N3A        13.2820   43.0950    5.7960 N.ar      1 VIB        -0.2610
     15 C2A        12.5960   43.0930    4.5470 C.ar      1 VIB         0.0758
     16 N1A        12.5430   44.3720    3.8580 N.ar      1 VIB        -0.2938
     17 C6A        13.3400   45.3600    4.2730 C.ar      1 VIB         0.0074
     18 C5A        14.0730   45.2640    5.4100 C.ar      1 VIB         0.0328
     19 H1         11.8901   41.0895    4.8911 H         1 VIB         0.0449
     20 H2         11.7643   41.6465    3.1881 H         1 VIB         0.0449
     21 H3         10.6142   42.2637    4.4222 H         1 VIB         0.0449
     22 H4         15.3956   44.6789    7.6018 H         1 VIB         0.1789
     23 H5         14.6734   43.0594    7.7973 H         1 VIB         0.1789
     24 H6         16.7890   46.2182    2.2254 H         1 VIB         0.0599
     25 H7         15.4856   47.2073    2.9666 H         1 VIB         0.0599
     26 H8         15.3676   45.4149    2.9743 H         1 VIB         0.0599
     27 H9         19.5529   43.9128    1.1870 H         1 VIB         0.2100
     28 H10        20.1431   44.1275    3.4356 H         1 VIB         0.0622
     29 H11        18.3643   44.0851    3.1891 H         1 VIB         0.0622
     30 H12        18.9032   46.7284    2.6427 H         1 VIB         0.0769
     31 H13        20.1528   46.3825    3.8858 H         1 VIB         0.0769
     32 H14        16.7236   46.2263    7.5696 H         1 VIB         0.1655
     33 H15        14.4860   47.2021    5.1697 H         1 VIB         0.0563
     34 H16        14.7037   46.5280    6.8204 H         1 VIB         0.0563
     35 H17        13.4030   46.2670    3.6826 H         1 VIB         0.0791
@<TRIPOS>BOND
     1   15    1 1  
     2   13    2 1  
     3   10    3 1  
     4    5    4 1  
     5    6    5 1  
     6    9    6 1  
     7    7    8 1  
     8   11    7 2  
     9    9    8 1  
    10   10    9 2  
    11   11   10 1  
    12   12   11 1  
    13   18   12 1  
    14   14   13 ar 
    15   13   18 ar 
    16   14   15 ar 
    17   15   16 ar 
    18   16   17 ar 
    19   17   18 ar 
    20    1   19 1  
    21    1   20 1  
    22    1   21 1  
    23    2   22 1  
    24    2   23 1  
    25    3   24 1  
    26    3   25 1  
    27    3   26 1  
    28    4   27 1  
    29    5   28 1  
    30    5   29 1  
    31    6   30 1  
    32    6   31 1  
    33    7   32 1  
    34   12   33 1  
    35   12   34 1  
    36   17   35 1  
@<TRIPOS>SUBSTRUCTURE
     1 VIB         1

