### 
### Created by X-TOOL on Mon Sep 10 21:12:51 2018
### 

@<TRIPOS>MOLECULE
1sdt_ligand
   94    98     1     0     0
SMALL
GAST_HUCK


@<TRIPOS>ATOM
      1 N1         23.3900   20.5370    2.9880 N.4       1 MK1         0.2576
      2 C1         23.4540   20.4130    4.4810 C.3       1 MK1         0.0316
      3 C2         24.4290   19.3630    4.9880 C.3       1 MK1         0.1092
      4 C3         24.4000   19.3790    6.4800 C.2       1 MK1         0.2304
      5 O1         23.3790   19.0220    7.0810 O.2       1 MK1        -0.3906
      6 N2         25.5100   19.7920    7.0840 N.am      1 MK1        -0.2769
      7 C4         25.6650   19.8940    8.5110 C.3       1 MK1         0.0448
      8 C5         27.0900   20.4650    8.7220 C.3       1 MK1        -0.0396
      9 C6         25.5660   18.5900    9.0670 C.3       1 MK1        -0.0396
     10 C7         24.7120   20.8320    9.0850 C.3       1 MK1        -0.0396
     11 N3         23.9030   18.0630    4.4290 N.4       1 MK1         0.2635
     12 C8         23.8240   18.1050    2.9510 C.3       1 MK1         0.0117
     13 C9         23.0300   19.2800    2.4690 C.3       1 MK1         0.0112
     14 C10        24.7440   16.9360    4.7610 C.3       1 MK1        -0.0026
     15 C11        23.8980   15.6800    5.0450 C.3       1 MK1         0.0974
     16 O2         24.6970   14.5980    4.7060 O.3       1 MK1        -0.3864
     17 C12        23.4780   15.5640    6.5210 C.3       1 MK1        -0.0003
     18 C13        22.5800   14.3360    6.8500 C.3       1 MK1         0.0608
     19 C14        22.4480   14.2260    8.3780 C.3       1 MK1         0.0007
     20 C15        21.4650   13.1890    8.7950 C.ar      1 MK1        -0.0405
     21 C16        21.6500   11.8650    8.4710 C.ar      1 MK1        -0.0602
     22 C17        20.7880   10.8820    8.9160 C.ar      1 MK1        -0.0686
     23 C18        19.6860   11.2710    9.6830 C.ar      1 MK1        -0.0687
     24 C19        19.4850   12.6030    9.9980 C.ar      1 MK1        -0.0686
     25 C20        20.3850   13.5700    9.5680 C.ar      1 MK1        -0.0602
     26 C21        21.2240   14.4900    6.2260 C.2       1 MK1         0.1831
     27 O3         20.5460   15.5200    6.3040 O.2       1 MK1        -0.3964
     28 N4         20.7580   13.3900    5.6640 N.am      1 MK1        -0.2707
     29 C22        19.3880   13.2060    5.3480 C.3       1 MK1         0.1006
     30 C23        18.7910   11.8560    5.6960 C.3       1 MK1         0.0951
     31 O4         19.6950   10.7930    5.3580 O.3       1 MK1        -0.3857
     32 C24        17.5520   11.7290    4.8090 C.3       1 MK1         0.0085
     33 C25        17.9040   12.4140    3.5120 C.ar      1 MK1        -0.0361
     34 C26        17.4350   12.3500    2.2350 C.ar      1 MK1        -0.0667
     35 C27        18.0190   13.1800    1.2800 C.ar      1 MK1        -0.0755
     36 C28        19.0380   14.0690    1.5720 C.ar      1 MK1        -0.0754
     37 C29        19.5310   14.1560    2.8620 C.ar      1 MK1        -0.0646
     38 C30        19.0480   13.3900    3.8560 C.ar      1 MK1        -0.0133
     39 C31        22.4420   21.5980    2.6190 C.3       1 MK1         0.0087
     40 C32        22.7620   23.0540    2.9970 C.ar      1 MK1         0.0294
     41 C33        23.8780   23.7120    2.4450 C.ar      1 MK1         0.0176
     42 N5         24.2560   25.0500    2.6910 N.ar      1 MK1        -0.3042
     43 C34        23.3550   25.6440    3.5760 C.ar      1 MK1         0.0042
     44 C35        22.2270   25.0720    4.1520 C.ar      1 MK1        -0.0403
     45 C36        21.9200   23.7500    3.8660 C.ar      1 MK1        -0.0354
     46 H1         24.3000   20.7861    2.6332 H         1 MK1         0.2056
     47 H2         22.4497   20.1536    4.8470 H         1 MK1         0.0899
     48 H3         23.7543   21.3875    4.8936 H         1 MK1         0.0899
     49 H4         25.4511   19.5558    4.6300 H         1 MK1         0.1155
     50 H5         26.2874   20.0483    6.5096 H         1 MK1         0.1859
     51 H6         27.2858   20.5732    9.7990 H         1 MK1         0.0254
     52 H7         27.1669   21.4482    8.2347 H         1 MK1         0.0254
     53 H8         27.8288   19.7789    8.2822 H         1 MK1         0.0254
     54 H9         25.6822   18.6474   10.1593 H         1 MK1         0.0254
     55 H10        26.3571   17.9513    8.6472 H         1 MK1         0.0254
     56 H11        24.5821   18.1619    8.8250 H         1 MK1         0.0254
     57 H12        24.8593   20.8842   10.1738 H         1 MK1         0.0254
     58 H13        23.6881   20.4926    8.8694 H         1 MK1         0.0254
     59 H14        24.8682   21.8283    8.6458 H         1 MK1         0.0254
     60 H15        22.9817   17.9091    4.8079 H         1 MK1         0.2061
     61 H16        23.3453   17.1813    2.5937 H         1 MK1         0.0868
     62 H17        24.8429   18.1720    2.5418 H         1 MK1         0.0868
     63 H18        23.1347   19.3278    1.3750 H         1 MK1         0.0868
     64 H19        21.9764   19.1005    2.7290 H         1 MK1         0.0868
     65 H20        25.3364   17.1803    5.6551 H         1 MK1         0.0840
     66 H21        25.4201   16.7311    3.9179 H         1 MK1         0.0840
     67 H22        22.9939   15.6962    4.4186 H         1 MK1         0.0648
     68 H23        25.4851   14.6093    5.2363 H         1 MK1         0.2100
     69 H24        22.9242   16.4750    6.7918 H         1 MK1         0.0321
     70 H25        24.3902   15.4942    7.1318 H         1 MK1         0.0321
     71 H26        23.0530   13.4239    6.4571 H         1 MK1         0.0561
     72 H27        22.1227   15.1992    8.7744 H         1 MK1         0.0453
     73 H28        23.4312   13.9687    8.7988 H         1 MK1         0.0453
     74 H29        22.4940   11.5861    7.8505 H         1 MK1         0.0557
     75 H30        20.9610    9.8388    8.6774 H         1 MK1         0.0599
     76 H31        18.9837   10.5234   10.0336 H         1 MK1         0.0559
     77 H32        18.6204   12.8938   10.5836 H         1 MK1         0.0599
     78 H33        20.2417   14.6106    9.8356 H         1 MK1         0.0557
     79 H34        21.4001   12.6534    5.4516 H         1 MK1         0.1880
     80 H35        18.8437   13.9713    5.9207 H         1 MK1         0.0732
     81 H36        18.5280   11.8072    6.7630 H         1 MK1         0.0659
     82 H37        19.3003    9.9591    5.5845 H         1 MK1         0.2103
     83 H38        16.6902   12.2229    5.2815 H         1 MK1         0.0439
     84 H39        17.3152   10.6697    4.6308 H         1 MK1         0.0439
     85 H40        16.6310   11.6733    1.9692 H         1 MK1         0.0537
     86 H41        17.6575   13.1265    0.2594 H         1 MK1         0.0541
     87 H42        19.4501   14.6972    0.7905 H         1 MK1         0.0541
     88 H43        20.3270   14.8598    3.0768 H         1 MK1         0.0538
     89 H44        21.4800   21.3476    3.0899 H         1 MK1         0.0997
     90 H45        22.3339   21.5663    1.5248 H         1 MK1         0.0997
     91 H46        24.5036   23.1393    1.7700 H         1 MK1         0.0767
     92 H47        23.5593   26.6737    3.8462 H         1 MK1         0.0767
     93 H48        21.5956   25.6513    4.8159 H         1 MK1         0.0693
     94 H49        21.0518   23.2714    4.3044 H         1 MK1         0.0680
@<TRIPOS>BOND
     1    1    2 1  
     2    1   13 1  
     3    1   39 1  
     4    2    3 1  
     5    3    4 1  
     6    3   11 1  
     7    4    5 2  
     8    4    6 am 
     9    6    7 1  
    10    7    8 1  
    11    7    9 1  
    12    7   10 1  
    13   11   12 1  
    14   11   14 1  
    15   12   13 1  
    16   14   15 1  
    17   15   16 1  
    18   15   17 1  
    19   17   18 1  
    20   18   19 1  
    21   18   26 1  
    22   19   20 1  
    23   20   21 ar 
    24   20   25 ar 
    25   21   22 ar 
    26   22   23 ar 
    27   23   24 ar 
    28   24   25 ar 
    29   26   27 2  
    30   26   28 am 
    31   28   29 1  
    32   29   30 1  
    33   29   38 1  
    34   30   31 1  
    35   30   32 1  
    36   32   33 1  
    37   33   34 ar 
    38   33   38 ar 
    39   34   35 ar 
    40   35   36 ar 
    41   36   37 ar 
    42   37   38 ar 
    43   39   40 1  
    44   40   41 ar 
    45   40   45 ar 
    46   41   42 ar 
    47   42   43 ar 
    48   43   44 ar 
    49   44   45 ar 
    50    1   46 1  
    51    2   47 1  
    52    2   48 1  
    53    3   49 1  
    54    6   50 1  
    55    8   51 1  
    56    8   52 1  
    57    8   53 1  
    58    9   54 1  
    59    9   55 1  
    60    9   56 1  
    61   10   57 1  
    62   10   58 1  
    63   10   59 1  
    64   11   60 1  
    65   12   61 1  
    66   12   62 1  
    67   13   63 1  
    68   13   64 1  
    69   14   65 1  
    70   14   66 1  
    71   15   67 1  
    72   16   68 1  
    73   17   69 1  
    74   17   70 1  
    75   18   71 1  
    76   19   72 1  
    77   19   73 1  
    78   21   74 1  
    79   22   75 1  
    80   23   76 1  
    81   24   77 1  
    82   25   78 1  
    83   28   79 1  
    84   29   80 1  
    85   30   81 1  
    86   31   82 1  
    87   32   83 1  
    88   32   84 1  
    89   34   85 1  
    90   35   86 1  
    91   36   87 1  
    92   37   88 1  
    93   39   89 1  
    94   39   90 1  
    95   41   91 1  
    96   43   92 1  
    97   44   93 1  
    98   45   94 1  
@<TRIPOS>SUBSTRUCTURE
     1 MK1         1

