### 
### Created by X-TOOL on Mon Sep 10 21:12:51 2018
### 

@<TRIPOS>MOLECULE
1sdu_ligand
   94    98     1     0     0
SMALL
GAST_HUCK


@<TRIPOS>ATOM
      1 N1         22.4900   34.6490   16.2760 N.4       1 MK1         0.2576
      2 C1         21.0860   34.5220   15.6530 C.3       1 MK1         0.0316
      3 C2         20.2080   33.3980   16.2070 C.3       1 MK1         0.1092
      4 C3         18.8930   33.4290   15.5050 C.2       1 MK1         0.2304
      5 O1         18.9020   33.0570   14.3260 O.2       1 MK1        -0.3906
      6 N2         17.9050   33.8850   16.2600 N.am      1 MK1        -0.2769
      7 C4         16.5340   33.9160   15.8010 C.3       1 MK1         0.0448
      8 C5         15.6670   34.5990   16.9150 C.3       1 MK1        -0.0396
      9 C6         16.0650   32.6010   15.6750 C.3       1 MK1        -0.0396
     10 C7         16.3710   34.7240   14.6040 C.3       1 MK1        -0.0396
     11 N3         21.0370   32.1620   15.8920 N.4       1 MK1         0.2635
     12 C8         22.3960   32.2170   16.4380 C.3       1 MK1         0.0117
     13 C9         23.1200   33.4410   15.9830 C.3       1 MK1         0.0112
     14 C10        20.3530   30.9880   16.4880 C.3       1 MK1        -0.0026
     15 C11        20.5500   29.8030   15.5310 C.3       1 MK1         0.0974
     16 O2         20.4910   28.7330   16.4360 O.3       1 MK1        -0.3864
     17 C12        19.3540   29.6770   14.5540 C.3       1 MK1        -0.0003
     18 C13        19.4510   28.4760   13.5860 C.3       1 MK1         0.0608
     19 C14        18.1360   28.4130   12.7500 C.3       1 MK1         0.0007
     20 C15        18.1380   27.3760   11.6940 C.ar      1 MK1        -0.0405
     21 C16        18.2960   26.0280   12.0500 C.ar      1 MK1        -0.0602
     22 C17        18.3000   25.0690   11.0230 C.ar      1 MK1        -0.0686
     23 C18        18.1340   25.4980    9.7160 C.ar      1 MK1        -0.0687
     24 C19        17.9710   26.8340    9.3770 C.ar      1 MK1        -0.0686
     25 C20        17.9860   27.7900   10.3810 C.ar      1 MK1        -0.0602
     26 C21        20.5790   28.6310   12.5990 C.2       1 MK1         0.1831
     27 O3         20.8840   29.6850   11.9850 O.2       1 MK1        -0.3964
     28 N4         21.2060   27.5160   12.3440 N.am      1 MK1        -0.2707
     29 C22        22.2100   27.3920   11.3130 C.3       1 MK1         0.1006
     30 C23        22.1360   26.0410   10.6250 C.3       1 MK1         0.0951
     31 O4         22.0140   24.9160   11.5440 O.3       1 MK1        -0.3857
     32 C24        23.4720   25.9700    9.8950 C.3       1 MK1         0.0085
     33 C25        24.5050   26.6700   10.7540 C.ar      1 MK1        -0.0361
     34 C26        25.8520   26.6850   10.9310 C.ar      1 MK1        -0.0667
     35 C27        26.4610   27.5260   11.8580 C.ar      1 MK1        -0.0755
     36 C28        25.7300   28.4010   12.6500 C.ar      1 MK1        -0.0754
     37 C29        24.3670   28.4300   12.4870 C.ar      1 MK1        -0.0646
     38 C30        23.6800   27.6230   11.6250 C.ar      1 MK1        -0.0133
     39 C31        23.1300   35.8060   15.6500 C.3       1 MK1         0.0087
     40 C32        22.5830   37.1560   16.0470 C.ar      1 MK1         0.0294
     41 C33        22.5090   37.5080   17.3970 C.ar      1 MK1         0.0176
     42 N5         21.9640   38.7480   17.7810 N.ar      1 MK1        -0.3042
     43 C34        21.5260   39.5520   16.7370 C.ar      1 MK1         0.0042
     44 C35        21.5670   39.2460   15.3740 C.ar      1 MK1        -0.0403
     45 C36        22.1180   38.0100   15.0610 C.ar      1 MK1        -0.0354
     46 H1         22.4419   34.7837   17.2738 H         1 MK1         0.2056
     47 H2         21.2105   34.3513   14.5735 H         1 MK1         0.0899
     48 H3         20.5579   35.4732   15.8154 H         1 MK1         0.0899
     49 H4         20.0497   33.4975   17.2910 H         1 MK1         0.1155
     50 H5         18.1142   34.2193   17.1789 H         1 MK1         0.1859
     51 H6         14.6165   34.6358   16.5909 H         1 MK1         0.0254
     52 H7         16.0330   35.6216   17.0891 H         1 MK1         0.0254
     53 H8         15.7433   34.0187   17.8463 H         1 MK1         0.0254
     54 H9         15.0219   32.6156   15.3260 H         1 MK1         0.0254
     55 H10        16.1178   32.0977   16.6517 H         1 MK1         0.0254
     56 H11        16.6871   32.0578   14.9484 H         1 MK1         0.0254
     57 H12        15.3148   34.7152   14.2968 H         1 MK1         0.0254
     58 H13        16.9915   34.3107   13.7953 H         1 MK1         0.0254
     59 H14        16.6832   35.7576   14.8140 H         1 MK1         0.0254
     60 H15        21.0930   32.0550   14.8913 H         1 MK1         0.2061
     61 H16        22.9516   31.3284   16.1039 H         1 MK1         0.0868
     62 H17        22.3398   32.2228   17.5365 H         1 MK1         0.0868
     63 H18        24.1096   33.4486   16.4631 H         1 MK1         0.0868
     64 H19        23.2424   33.3774   14.8917 H         1 MK1         0.0868
     65 H20        19.2802   31.1994   16.6078 H         1 MK1         0.0840
     66 H21        20.7927   30.7553   17.4691 H         1 MK1         0.0840
     67 H22        21.5031   29.8553   14.9843 H         1 MK1         0.0648
     68 H23        19.6480   28.7362   16.8739 H         1 MK1         0.2100
     69 H24        19.2984   30.5985   13.9559 H         1 MK1         0.0321
     70 H25        18.4339   29.5687   15.1470 H         1 MK1         0.0321
     71 H26        19.5865   27.5499   14.1640 H         1 MK1         0.0561
     72 H27        17.9838   29.3919   12.2719 H         1 MK1         0.0453
     73 H28        17.3010   28.2058   13.4354 H         1 MK1         0.0453
     74 H29        18.4116   25.7349   13.0872 H         1 MK1         0.0557
     75 H30        18.4301   24.0167   11.2483 H         1 MK1         0.0599
     76 H31        18.1313   24.7580    8.9238 H         1 MK1         0.0559
     77 H32        17.8339   27.1258    8.3420 H         1 MK1         0.0599
     78 H33        17.8807   28.8422   10.1428 H         1 MK1         0.0557
     79 H34        20.9807   26.7081   12.8885 H         1 MK1         0.1880
     80 H35        21.9410   28.1574   10.5702 H         1 MK1         0.0732
     81 H36        21.2940   26.0172    9.9176 H         1 MK1         0.0659
     82 H37        21.9730   24.1066   11.0483 H         1 MK1         0.2103
     83 H38        23.3931   26.4728    8.9198 H         1 MK1         0.0439
     84 H39        23.7607   24.9194    9.7436 H         1 MK1         0.0439
     85 H40        26.4695   26.0238   10.3338 H         1 MK1         0.0537
     86 H41        27.5393   27.4968   11.9648 H         1 MK1         0.0541
     87 H42        26.2200   29.0414   13.3745 H         1 MK1         0.0541
     88 H43        23.7999   29.1384   13.0801 H         1 MK1         0.0538
     89 H44        23.0188   35.7043   14.5604 H         1 MK1         0.0997
     90 H45        24.1978   35.7842   15.9133 H         1 MK1         0.0997
     91 H46        22.8734   36.8223   18.1533 H         1 MK1         0.0767
     92 H47        21.1096   40.5158   17.0069 H         1 MK1         0.0767
     93 H48        21.1953   39.9249   14.6151 H         1 MK1         0.0693
     94 H49        22.1855   37.7073   14.0223 H         1 MK1         0.0680
@<TRIPOS>BOND
     1    1    2 1  
     2    1   13 1  
     3    1   39 1  
     4    2    3 1  
     5    3    4 1  
     6    3   11 1  
     7    4    5 2  
     8    4    6 am 
     9    6    7 1  
    10    7    8 1  
    11    7    9 1  
    12    7   10 1  
    13   11   12 1  
    14   11   14 1  
    15   12   13 1  
    16   14   15 1  
    17   15   16 1  
    18   15   17 1  
    19   17   18 1  
    20   18   19 1  
    21   18   26 1  
    22   19   20 1  
    23   20   21 ar 
    24   20   25 ar 
    25   21   22 ar 
    26   22   23 ar 
    27   23   24 ar 
    28   24   25 ar 
    29   26   27 2  
    30   26   28 am 
    31   28   29 1  
    32   29   30 1  
    33   29   38 1  
    34   30   31 1  
    35   30   32 1  
    36   32   33 1  
    37   33   34 ar 
    38   33   38 ar 
    39   34   35 ar 
    40   35   36 ar 
    41   36   37 ar 
    42   37   38 ar 
    43   39   40 1  
    44   40   41 ar 
    45   40   45 ar 
    46   41   42 ar 
    47   42   43 ar 
    48   43   44 ar 
    49   44   45 ar 
    50    1   46 1  
    51    2   47 1  
    52    2   48 1  
    53    3   49 1  
    54    6   50 1  
    55    8   51 1  
    56    8   52 1  
    57    8   53 1  
    58    9   54 1  
    59    9   55 1  
    60    9   56 1  
    61   10   57 1  
    62   10   58 1  
    63   10   59 1  
    64   11   60 1  
    65   12   61 1  
    66   12   62 1  
    67   13   63 1  
    68   13   64 1  
    69   14   65 1  
    70   14   66 1  
    71   15   67 1  
    72   16   68 1  
    73   17   69 1  
    74   17   70 1  
    75   18   71 1  
    76   19   72 1  
    77   19   73 1  
    78   21   74 1  
    79   22   75 1  
    80   23   76 1  
    81   24   77 1  
    82   25   78 1  
    83   28   79 1  
    84   29   80 1  
    85   30   81 1  
    86   31   82 1  
    87   32   83 1  
    88   32   84 1  
    89   34   85 1  
    90   35   86 1  
    91   36   87 1  
    92   37   88 1  
    93   39   89 1  
    94   39   90 1  
    95   41   91 1  
    96   43   92 1  
    97   44   93 1  
    98   45   94 1  
@<TRIPOS>SUBSTRUCTURE
     1 MK1         1

