### 
### Created by X-TOOL on Mon Sep 10 21:12:52 2018
### 

@<TRIPOS>MOLECULE
1sgu_ligand
   94    98     1     0     0
SMALL
GAST_HUCK


@<TRIPOS>ATOM
      1 N1         17.9230    4.5360   12.1150 N.4       1 MK1         0.2576
      2 C1         17.5320    3.3370   12.9090 C.3       1 MK1         0.0316
      3 C2         18.5960    2.2350   13.0340 C.3       1 MK1         0.1092
      4 C3         17.9940    1.1050   13.8700 C.2       1 MK1         0.2304
      5 O1         17.2770    0.2430   13.3260 O.2       1 MK1        -0.3906
      6 N2         18.2900    1.0990   15.1870 N.am      1 MK1        -0.2769
      7 C4         17.8190    0.0520   16.2420 C.3       1 MK1         0.0448
      8 C5         18.3720    0.4010   17.6570 C.3       1 MK1        -0.0396
      9 C6         18.4610   -1.3480   16.0670 C.3       1 MK1        -0.0396
     10 C7         16.1950   -0.0290   16.2900 C.3       1 MK1        -0.0396
     11 N3         19.0070    1.8220   11.6580 N.4       1 MK1         0.2635
     12 C8         19.3480    2.9580   10.7450 C.3       1 MK1         0.0117
     13 C9         18.2670    4.0750   10.7290 C.3       1 MK1         0.0112
     14 C10        20.0700    0.7890   11.6700 C.3       1 MK1        -0.0026
     15 C11        19.9600   -0.1980   10.5230 C.3       1 MK1         0.0974
     16 O2         21.2710   -0.5680   10.0810 O.3       1 MK1        -0.3864
     17 C12        19.2510   -1.5270   10.8420 C.3       1 MK1        -0.0003
     18 C13        19.1360   -2.5230    9.6920 C.3       1 MK1         0.0608
     19 C14        18.4900   -3.7730   10.3260 C.3       1 MK1         0.0007
     20 C15        18.3250   -4.9130    9.3600 C.ar      1 MK1        -0.0405
     21 C16        19.4430   -5.5650    8.7560 C.ar      1 MK1        -0.0602
     22 C17        19.2260   -6.6360    7.8420 C.ar      1 MK1        -0.0686
     23 C18        17.8960   -7.0520    7.5330 C.ar      1 MK1        -0.0687
     24 C19        16.7910   -6.4030    8.1340 C.ar      1 MK1        -0.0686
     25 C20        16.9980   -5.3380    9.0440 C.ar      1 MK1        -0.0602
     26 C21        18.2820   -1.9630    8.5230 C.2       1 MK1         0.1831
     27 O3         17.4400   -1.0840    8.6810 O.2       1 MK1        -0.3964
     28 N4         18.5250   -2.5170    7.3410 N.am      1 MK1        -0.2707
     29 C22        17.8660   -2.1680    6.0730 C.3       1 MK1         0.1006
     30 C23        18.3830   -3.0890    4.9370 C.3       1 MK1         0.0951
     31 O4         19.7470   -3.4540    5.1540 O.3       1 MK1        -0.3857
     32 C24        18.0330   -2.3210    3.6800 C.3       1 MK1         0.0085
     33 C25        18.2740   -0.8610    3.9180 C.ar      1 MK1        -0.0361
     34 C26        18.5400    0.2510    3.1050 C.ar      1 MK1        -0.0667
     35 C27        18.7160    1.5090    3.7300 C.ar      1 MK1        -0.0755
     36 C28        18.6290    1.6590    5.1500 C.ar      1 MK1        -0.0754
     37 C29        18.3590    0.5460    6.0020 C.ar      1 MK1        -0.0646
     38 C30        18.1640   -0.7630    5.4840 C.ar      1 MK1        -0.0133
     39 C31        16.9040    5.6260   12.1760 C.3       1 MK1         0.0087
     40 C32        16.4360    6.2820   13.5430 C.ar      1 MK1         0.0294
     41 C33        17.2750    7.1070   14.3030 C.ar      1 MK1         0.0176
     42 N5         16.8580    7.7290   15.5870 N.ar      1 MK1        -0.3042
     43 C34        15.5180    7.4200   15.9950 C.ar      1 MK1         0.0042
     44 C35        14.6610    6.6010   15.2550 C.ar      1 MK1        -0.0403
     45 C36        15.1220    6.0330   14.0320 C.ar      1 MK1        -0.0354
     46 H1         18.7646    4.9121   12.5228 H         1 MK1         0.2056
     47 H2         16.6435    2.8946   12.4349 H         1 MK1         0.0899
     48 H3         17.2763    3.6744   13.9242 H         1 MK1         0.0899
     49 H4         19.4794    2.6279   13.5586 H         1 MK1         0.1155
     50 H5         18.8707    1.8419   15.5200 H         1 MK1         0.1859
     51 H6         18.0262   -0.3510   18.3815 H         1 MK1         0.0254
     52 H7         18.0083    1.3945   17.9581 H         1 MK1         0.0254
     53 H8         19.4716    0.4057   17.6300 H         1 MK1         0.0254
     54 H9         18.0800   -2.0259   16.8450 H         1 MK1         0.0254
     55 H10        19.5541   -1.2640   16.1572 H         1 MK1         0.0254
     56 H11        18.2045   -1.7476   15.0748 H         1 MK1         0.0254
     57 H12        15.8870   -0.7726   17.0398 H         1 MK1         0.0254
     58 H13        15.8132   -0.3250   15.3018 H         1 MK1         0.0254
     59 H14        15.7866    0.9558   16.5610 H         1 MK1         0.0254
     60 H15        18.1949    1.3822   11.2541 H         1 MK1         0.2061
     61 H16        19.4597    2.5647    9.7238 H         1 MK1         0.0868
     62 H17        20.3007    3.3980   11.0747 H         1 MK1         0.0868
     63 H18        18.6480    4.9312   10.1530 H         1 MK1         0.0868
     64 H19        17.3583    3.6844   10.2476 H         1 MK1         0.0868
     65 H20        20.0057    0.2327   12.6168 H         1 MK1         0.0840
     66 H21        21.0463    1.2917   11.6056 H         1 MK1         0.0840
     67 H22        19.4174    0.2994    9.7056 H         1 MK1         0.0648
     68 H23        21.7447   -0.9698   10.7998 H         1 MK1         0.2100
     69 H24        18.2326   -1.2903   11.1838 H         1 MK1         0.0321
     70 H25        19.8063   -2.0167   11.6555 H         1 MK1         0.0321
     71 H26        20.1364   -2.7703    9.3074 H         1 MK1         0.0561
     72 H27        17.4977   -3.4957   10.7112 H         1 MK1         0.0453
     73 H28        19.1254   -4.1101   11.1583 H         1 MK1         0.0453
     74 H29        20.4519   -5.2464    8.9919 H         1 MK1         0.0557
     75 H30        20.0709   -7.1350    7.3812 H         1 MK1         0.0599
     76 H31        17.7319   -7.8665    6.8368 H         1 MK1         0.0559
     77 H32        15.7826   -6.7224    7.8968 H         1 MK1         0.0599
     78 H33        16.1483   -4.8444    9.5016 H         1 MK1         0.0557
     79 H34        19.2187   -3.2366    7.3100 H         1 MK1         0.1880
     80 H35        16.7812   -2.2849    6.2130 H         1 MK1         0.0732
     81 H36        17.8062   -4.0256    4.9331 H         1 MK1         0.0659
     82 H37        20.0395   -4.0166    4.4466 H         1 MK1         0.2103
     83 H38        16.9741   -2.4842    3.4307 H         1 MK1         0.0439
     84 H39        18.6633   -2.6681    2.8480 H         1 MK1         0.0439
     85 H40        18.6089    0.1497    2.0279 H         1 MK1         0.0537
     86 H41        18.9217    2.3796    3.1178 H         1 MK1         0.0541
     87 H42        18.7713    2.6399    5.5889 H         1 MK1         0.0541
     88 H43        18.3011    0.7034    7.0729 H         1 MK1         0.0538
     89 H44        15.9959    5.2216   11.7050 H         1 MK1         0.0997
     90 H45        17.3000    6.4487   11.5626 H         1 MK1         0.0997
     91 H46        18.2767    7.3012   13.9371 H         1 MK1         0.0767
     92 H47        15.1519    7.8428   16.9236 H         1 MK1         0.0767
     93 H48        13.6559    6.3998   15.6076 H         1 MK1         0.0693
     94 H49        14.4565    5.3962   13.4604 H         1 MK1         0.0680
@<TRIPOS>BOND
     1    1    2 1  
     2    1   13 1  
     3    1   39 1  
     4    2    3 1  
     5    3    4 1  
     6    3   11 1  
     7    4    5 2  
     8    4    6 am 
     9    6    7 1  
    10    7    8 1  
    11    7    9 1  
    12    7   10 1  
    13   11   12 1  
    14   11   14 1  
    15   12   13 1  
    16   14   15 1  
    17   15   16 1  
    18   15   17 1  
    19   17   18 1  
    20   18   19 1  
    21   18   26 1  
    22   19   20 1  
    23   20   21 ar 
    24   20   25 ar 
    25   21   22 ar 
    26   22   23 ar 
    27   23   24 ar 
    28   24   25 ar 
    29   26   27 2  
    30   26   28 am 
    31   28   29 1  
    32   29   30 1  
    33   29   38 1  
    34   30   31 1  
    35   30   32 1  
    36   32   33 1  
    37   33   34 ar 
    38   33   38 ar 
    39   34   35 ar 
    40   35   36 ar 
    41   36   37 ar 
    42   37   38 ar 
    43   39   40 1  
    44   40   41 ar 
    45   40   45 ar 
    46   41   42 ar 
    47   42   43 ar 
    48   43   44 ar 
    49   44   45 ar 
    50    1   46 1  
    51    2   47 1  
    52    2   48 1  
    53    3   49 1  
    54    6   50 1  
    55    8   51 1  
    56    8   52 1  
    57    8   53 1  
    58    9   54 1  
    59    9   55 1  
    60    9   56 1  
    61   10   57 1  
    62   10   58 1  
    63   10   59 1  
    64   11   60 1  
    65   12   61 1  
    66   12   62 1  
    67   13   63 1  
    68   13   64 1  
    69   14   65 1  
    70   14   66 1  
    71   15   67 1  
    72   16   68 1  
    73   17   69 1  
    74   17   70 1  
    75   18   71 1  
    76   19   72 1  
    77   19   73 1  
    78   21   74 1  
    79   22   75 1  
    80   23   76 1  
    81   24   77 1  
    82   25   78 1  
    83   28   79 1  
    84   29   80 1  
    85   30   81 1  
    86   31   82 1  
    87   32   83 1  
    88   32   84 1  
    89   34   85 1  
    90   35   86 1  
    91   36   87 1  
    92   37   88 1  
    93   39   89 1  
    94   39   90 1  
    95   41   91 1  
    96   43   92 1  
    97   44   93 1  
    98   45   94 1  
@<TRIPOS>SUBSTRUCTURE
     1 MK1         1

