### 
### Created by X-TOOL on Mon Sep 10 21:12:51 2018
### 

@<TRIPOS>MOLECULE
1sh9_ligand
   98   101     1     0     0
SMALL
GAST_HUCK


@<TRIPOS>ATOM
      1 C1         18.2570    1.2190    4.1580 C.2       1 RIT        -0.0174
      2 C2         17.9210    0.0750    4.8210 C.2       1 RIT         0.0612
      3 S3         18.3630   -1.4460    4.0140 S.3       1 RIT        -0.0006
      4 C4         18.9550   -0.2360    2.8580 C.2       1 RIT         0.0672
      5 N5         18.8460    1.0310    3.0390 N.2       1 RIT        -0.3288
      6 C6         17.2920   -0.3140    6.0350 C.3       1 RIT         0.1243
      7 O7         18.2950   -0.4790    7.0100 O.3       1 RIT        -0.2484
      8 C10        18.0880   -0.8560    8.3310 C.2       1 RIT         0.3223
      9 N11        19.2710   -0.9190    9.0030 N.am      1 RIT        -0.2549
     10 C12        19.4160   -1.2800   10.4260 C.3       1 RIT         0.0793
     11 C13        20.4630   -0.4350   11.1760 C.3       1 RIT         0.0821
     12 C14        20.3250    1.0600   10.9840 C.3       1 RIT         0.0004
     13 C15        19.2010    1.8860   11.6650 C.3       1 RIT         0.0540
     14 C18        18.2180    1.3320   13.9010 C.2       1 RIT         0.2020
     15 C19        18.5260    1.3950   15.4100 C.3       1 RIT         0.1335
     16 N20        17.9340    2.6100   16.0060 N.am      1 RIT        -0.2514
     17 C21        18.7010    3.6750   16.3870 C.2       1 RIT         0.2635
     18 O24        16.9680   -1.0950    8.8030 O.2       1 RIT        -0.3774
     19 C26        19.6720   -2.7920   10.6670 C.3       1 RIT         0.0064
     20 C28        18.8190   -3.7910   10.0590 C.ar      1 RIT        -0.0408
     21 C31        17.6770   -4.0080   10.8810 C.ar      1 RIT        -0.0603
     22 C32        16.7050   -4.9600   10.4460 C.ar      1 RIT        -0.0686
     23 C33        16.8540   -5.6850    9.2210 C.ar      1 RIT        -0.0687
     24 C34        18.0130   -5.4500    8.4090 C.ar      1 RIT        -0.0686
     25 C35        18.9930   -4.5070    8.8240 C.ar      1 RIT        -0.0603
     26 O41        21.7150   -0.8450   10.6700 O.3       1 RIT        -0.3893
     27 C44        19.4830    3.3160   11.2530 C.3       1 RIT         0.0040
     28 C45        18.3510    4.1520   11.6230 C.ar      1 RIT        -0.0408
     29 C48        18.4870    4.9440   12.8060 C.ar      1 RIT        -0.0603
     30 C49        17.4180    5.7880   13.2400 C.ar      1 RIT        -0.0686
     31 C50        16.2260    5.8270   12.4760 C.ar      1 RIT        -0.0687
     32 C51        16.0910    5.0470   11.3040 C.ar      1 RIT        -0.0686
     33 C52        17.1480    4.2060   10.8690 C.ar      1 RIT        -0.0603
     34 N58        19.2200    1.8050   13.1270 N.am      1 RIT        -0.2800
     35 O61        17.1400    0.8990   13.4410 O.2       1 RIT        -0.3945
     36 C62        18.0280    0.1600   16.2530 C.3       1 RIT        -0.0065
     37 C64        18.5350   -1.2280   15.7770 C.3       1 RIT        -0.0585
     38 C68        18.3840    0.3410   17.7520 C.3       1 RIT        -0.0585
     39 N74        17.9780    4.7650   16.8350 N.am      1 RIT        -0.2534
     40 C75        18.6690    5.9940   17.2860 C.3       1 RIT         0.0647
     41 O76        19.9570    3.6270   16.3240 O.2       1 RIT        -0.4004
     42 C77        18.9780    7.0320   16.2820 C.2       1 RIT         0.0075
     43 C80        20.2130    6.9940   15.6970 C.2       1 RIT        -0.0033
     44 S81        20.2580    8.3590   14.5530 S.3       1 RIT        -0.0199
     45 C82        18.6060    8.7920   15.0210 C.2       1 RIT         0.0910
     46 N83        18.1430    7.9690   15.9280 N.2       1 RIT        -0.3157
     47 C85        18.2280    9.9160   14.2790 C.3       1 RIT         0.0236
     48 C86        18.9240   11.2650   14.1040 C.3       1 RIT        -0.0458
     49 C90        16.8490   10.2900   14.6530 C.3       1 RIT        -0.0458
     50 C95        16.6530    4.9080   16.9410 C.3       1 RIT         0.0248
     51 H1         18.0410    2.2117    4.5501 H         1 RIT         0.0425
     52 H2         19.4365   -0.5867    1.9463 H         1 RIT         0.1080
     53 H3         16.7531   -1.2618    5.8895 H         1 RIT         0.0803
     54 H4         16.5843    0.4648    6.3553 H         1 RIT         0.0803
     55 H5         20.1042   -0.7043    8.4933 H         1 RIT         0.1873
     56 H6         18.4449   -1.0531   10.8902 H         1 RIT         0.0604
     57 H7         20.3971   -0.6546   12.2518 H         1 RIT         0.0619
     58 H8         20.2094    1.2201    9.9019 H         1 RIT         0.0315
     59 H9         21.2751    1.5006   11.3205 H         1 RIT         0.0315
     60 H10        18.2175    1.5570   11.2982 H         1 RIT         0.0579
     61 H11        19.6197    1.4498   15.5143 H         1 RIT         0.0799
     62 H12        16.9433    2.6545   16.1344 H         1 RIT         0.1877
     63 H13        19.6167   -2.9509   11.7540 H         1 RIT         0.0449
     64 H14        20.6947   -2.9973   10.3179 H         1 RIT         0.0449
     65 H15        17.5487   -3.4659   11.8109 H         1 RIT         0.0557
     66 H16        15.8302   -5.1383   11.0608 H         1 RIT         0.0599
     67 H17        16.1018   -6.4014    8.9112 H         1 RIT         0.0559
     68 H18        18.1417   -5.9915    7.4788 H         1 RIT         0.0599
     69 H19        19.8690   -4.3283    8.2110 H         1 RIT         0.0557
     70 H20        22.4077   -0.3945   11.1387 H         1 RIT         0.2099
     71 H21        19.6344    3.3623   10.1645 H         1 RIT         0.0448
     72 H22        20.3882    3.6748   11.7648 H         1 RIT         0.0448
     73 H23        19.4072    4.9040   13.3776 H         1 RIT         0.0557
     74 H24        17.5179    6.3874   14.1377 H         1 RIT         0.0599
     75 H25        15.4072    6.4625   12.7935 H         1 RIT         0.0559
     76 H26        15.1711    5.0920   10.7324 H         1 RIT         0.0599
     77 H27        17.0386    3.6104    9.9699 H         1 RIT         0.0557
     78 H28        20.0445    2.1270   13.5923 H         1 RIT         0.1856
     79 H29        16.9315    0.1448   16.1670 H         1 RIT         0.0342
     80 H30        18.1282   -2.0117   16.4331 H         1 RIT         0.0234
     81 H31        19.6340   -1.2504   15.8170 H         1 RIT         0.0234
     82 H32        18.2019   -1.4055   14.7438 H         1 RIT         0.0234
     83 H33        18.0279    1.3228   18.0974 H         1 RIT         0.0234
     84 H34        19.4749    0.2809   17.8797 H         1 RIT         0.0234
     85 H35        17.9015   -0.4523   18.3419 H         1 RIT         0.0234
     86 H36        19.6227    5.6842   17.7381 H         1 RIT         0.0654
     87 H37        18.0343    6.4616   18.0531 H         1 RIT         0.0654
     88 H38        21.0079    6.2753   15.8909 H         1 RIT         0.0503
     89 H39        18.1970    9.5170   13.2544 H         1 RIT         0.0551
     90 H40        18.3226   11.9046   13.4413 H         1 RIT         0.0263
     91 H41        19.9184   11.1097   13.6602 H         1 RIT         0.0263
     92 H42        19.0320   11.7518   15.0845 H         1 RIT         0.0263
     93 H43        16.2508    9.3796   14.8056 H         1 RIT         0.0263
     94 H44        16.4014   10.8922   13.8486 H         1 RIT         0.0263
     95 H45        16.8677   10.8767   15.5833 H         1 RIT         0.0263
     96 H46        16.1565    3.9868   16.6021 H         1 RIT         0.0485
     97 H47        16.3242    5.7524   16.3173 H         1 RIT         0.0485
     98 H48        16.3880    5.1024   17.9907 H         1 RIT         0.0485
@<TRIPOS>BOND
     1    2    1 2  
     2    1    5 1  
     3    2    3 1  
     4    6    2 1  
     5    3    4 1  
     6    4    5 2  
     7    7    6 1  
     8    8    7 1  
     9    9    8 am 
    10    8   18 2  
    11   10    9 1  
    12   11   10 1  
    13   10   19 1  
    14   12   11 1  
    15   11   26 1  
    16   13   12 1  
    17   13   27 1  
    18   34   13 1  
    19   14   15 1  
    20   14   34 am 
    21   14   35 2  
    22   15   16 1  
    23   15   36 1  
    24   16   17 am 
    25   17   39 am 
    26   17   41 2  
    27   19   20 1  
    28   20   21 ar 
    29   20   25 ar 
    30   21   22 ar 
    31   22   23 ar 
    32   23   24 ar 
    33   24   25 ar 
    34   27   28 1  
    35   28   29 ar 
    36   28   33 ar 
    37   29   30 ar 
    38   30   31 ar 
    39   31   32 ar 
    40   32   33 ar 
    41   36   37 1  
    42   36   38 1  
    43   39   40 1  
    44   39   50 1  
    45   40   42 1  
    46   42   43 2  
    47   42   46 1  
    48   43   44 1  
    49   44   45 1  
    50   45   46 2  
    51   45   47 1  
    52   47   48 1  
    53   47   49 1  
    54    1   51 1  
    55    4   52 1  
    56    6   53 1  
    57    6   54 1  
    58    9   55 1  
    59   10   56 1  
    60   11   57 1  
    61   12   58 1  
    62   12   59 1  
    63   13   60 1  
    64   15   61 1  
    65   16   62 1  
    66   19   63 1  
    67   19   64 1  
    68   21   65 1  
    69   22   66 1  
    70   23   67 1  
    71   24   68 1  
    72   25   69 1  
    73   26   70 1  
    74   27   71 1  
    75   27   72 1  
    76   29   73 1  
    77   30   74 1  
    78   31   75 1  
    79   32   76 1  
    80   33   77 1  
    81   34   78 1  
    82   36   79 1  
    83   37   80 1  
    84   37   81 1  
    85   37   82 1  
    86   38   83 1  
    87   38   84 1  
    88   38   85 1  
    89   40   86 1  
    90   40   87 1  
    91   43   88 1  
    92   47   89 1  
    93   48   90 1  
    94   48   91 1  
    95   48   92 1  
    96   49   93 1  
    97   49   94 1  
    98   49   95 1  
    99   50   96 1  
   100   50   97 1  
   101   50   98 1  
@<TRIPOS>SUBSTRUCTURE
     1 RIT         1

