### 
### Created by X-TOOL on Mon Sep 10 21:12:45 2018
### 

@<TRIPOS>MOLECULE
1shd_ligand
   74    74     1     0     0
SMALL
GAST_HUCK


@<TRIPOS>ATOM
      1 C          20.7640   10.9560    0.7630 C.2       1 ACE         0.1231
      2 O          21.0510   10.5680    1.8950 O.co2     1 ACE        -0.5646
      3 N          19.5190   10.9080    0.3160 N.am      1 PTR        -0.2859
      4 CA         18.3880   10.5610    1.1440 C.3       1 PTR         0.1316
      5 C          17.8530    9.2640    0.6210 C.2       1 PTR         0.2038
      6 O          17.6700    9.1500   -0.5930 O.2       1 PTR        -0.3944
      7 CB         17.3500   11.5990    1.0170 C.3       1 PTR         0.0146
      8 CG         17.8040   12.8650    1.6990 C.ar      1 PTR        -0.0494
      9 CD1        17.6180   12.9890    3.0610 C.ar      1 PTR        -0.0685
     10 CD2        18.4430   13.8600    0.9800 C.ar      1 PTR        -0.0685
     11 CE1        18.0880   14.1120    3.7050 C.ar      1 PTR        -0.0398
     12 CE2        18.9210   14.9840    1.6050 C.ar      1 PTR        -0.0398
     13 CZ         18.7330   15.0940    2.9630 C.ar      1 PTR         0.0805
     14 OH         19.1520   16.2890    3.6410 O.3       1 PTR        -0.3376
     15 H1         19.3528   11.1235   -0.6463 H         1 PTR         0.1741
     16 H2         18.6946   10.4589    2.1954 H         1 PTR         0.0799
     17 H3         16.4206   11.2448    1.4868 H         1 PTR         0.0451
     18 H4         17.1675   11.8039   -0.0482 H         1 PTR         0.0451
     19 H5         17.1077   12.2112    3.6176 H         1 PTR         0.0530
     20 H6         18.5675   13.7499   -0.0912 H         1 PTR         0.0530
     21 H7         17.9567   14.2281    4.7747 H         1 PTR         0.0525
     22 H8         19.4306   15.7606    1.0462 H         1 PTR         0.0525
     23 H9         19.5760   16.8712    3.0214 H         1 PTR         0.2458
     24 N          17.6570    8.2820    1.5000 N.am      1 GLU        -0.2636
     25 CA         17.1330    6.9650    1.1670 C.3       1 GLU         0.1325
     26 C          15.6590    7.0440    0.8450 C.2       1 GLU         0.2040
     27 O          14.8810    7.7650    1.4790 O.2       1 GLU        -0.3944
     28 CB         17.2630    5.9760    2.3130 C.3       1 GLU        -0.0008
     29 CG         18.7000    5.5520    2.6270 C.3       1 GLU         0.0044
     30 CD         19.3780    4.6690    1.6140 C.2       1 GLU         0.0350
     31 OE1        18.6990    4.1790    0.7490 O.co2     1 GLU        -0.5690
     32 OE2        20.5720    4.4410    1.6700 O.co2     1 GLU        -0.5690
     33 H10        17.8861    8.4624    2.4565 H         1 GLU         0.1883
     34 H11        17.6829    6.5834    0.2941 H         1 GLU         0.0801
     35 H12        16.6875    5.0746    2.0556 H         1 GLU         0.0330
     36 H13        16.8364    6.4381    3.2155 H         1 GLU         0.0330
     37 H14        18.6869    5.0118    3.5851 H         1 GLU         0.0433
     38 H15        19.3030    6.4662    2.7297 H         1 GLU         0.0433
     39 N          15.2840    6.3560   -0.2200 N.am      1 GLU        -0.2636
     40 CA         13.8890    6.2270   -0.5920 C.3       1 GLU         0.1324
     41 C          13.4520    4.8890   -0.0220 C.2       1 GLU         0.2035
     42 O          14.1630    3.8740   -0.0640 O.2       1 GLU        -0.3944
     43 CB         13.7320    6.2610   -2.1060 C.3       1 GLU        -0.0008
     44 CG         14.0980    7.6440   -2.6690 C.3       1 GLU         0.0044
     45 CD         13.3130    8.8500   -2.0980 C.2       1 GLU         0.0350
     46 OE1        12.0650    8.7970   -2.0510 O.co2     1 GLU        -0.5690
     47 OE2        13.9570    9.8470   -1.7010 O.co2     1 GLU        -0.5690
     48 H16        15.9811    5.9130   -0.7837 H         1 GLU         0.1883
     49 H17        13.2971    7.0416   -0.1492 H         1 GLU         0.0801
     50 H18        12.6873    6.0330   -2.3642 H         1 GLU         0.0330
     51 H19        14.3937    5.5045   -2.5530 H         1 GLU         0.0330
     52 H20        13.9283    7.6185   -3.7555 H         1 GLU         0.0433
     53 H21        15.1660    7.8149   -2.4686 H         1 GLU         0.0433
     54 N          12.3670    4.9510    0.7060 N.am      1 ILE        -0.2692
     55 CA         11.7610    3.7710    1.2790 C.3       1 ILE         0.0969
     56 C          10.7130    3.3260    0.2190 C.2       1 ILE         0.0604
     57 O          10.1510    4.1510   -0.5300 O.co2     1 ILE        -0.5666
     58 CB         11.2130    4.1980    2.6760 C.3       1 ILE        -0.0092
     59 CG1        10.2060    3.2340    3.2000 C.3       1 ILE        -0.0497
     60 CG2        10.5300    5.5300    2.5690 C.3       1 ILE        -0.0588
     61 CD1         9.5970    3.7230    4.5410 C.3       1 ILE        -0.0649
     62 H22        11.9441    5.8420    0.8710 H         1 ILE         0.1875
     63 OXT        10.5610    2.1130    0.0300 O.co2     1 ILE        -0.5666
     64 H23        12.4992    2.9673    1.4176 H         1 ILE         0.0729
     65 H24        12.0544    4.2660    3.3813 H         1 ILE         0.0338
     66 H25        10.6927    2.2609    3.3619 H         1 ILE         0.0267
     67 H26         9.3993    3.1220    2.4606 H         1 ILE         0.0267
     68 H27        11.2404    6.2764    2.1839 H         1 ILE         0.0234
     69 H28        10.1745    5.8407    3.5625 H         1 ILE         0.0234
     70 H29         9.6746    5.4494    1.8821 H         1 ILE         0.0234
     71 H30         8.8595    2.9890    4.8980 H         1 ILE         0.0230
     72 H31         9.1032    4.6938    4.3871 H         1 ILE         0.0230
     73 H32        10.3965    3.8327    5.2885 H         1 ILE         0.0230
     74 O1         21.6723   11.4074    0.0154 O.co2     1 ACE        -0.5646
@<TRIPOS>BOND
     1    1    2 ar 
     2    3   15 1  
     3    5    4 1  
     4    4    7 1  
     5    4    3 1  
     6    4   16 1  
     7    7   17 1  
     8    7   18 1  
     9    7    8 1  
    10    8   10 ar 
    11    8    9 ar 
    12    9   19 1  
    13    9   11 ar 
    14   10   20 1  
    15   11   13 ar 
    16   13   14 1  
    17   12   13 ar 
    18   11   21 1  
    19   10   12 ar 
    20   12   22 1  
    21   14   23 1  
    22    5    6 2  
    23   24   33 1  
    24   26   25 1  
    25   25   28 1  
    26   25   24 1  
    27   25   34 1  
    28   28   35 1  
    29   28   36 1  
    30   28   29 1  
    31   29   37 1  
    32   29   38 1  
    33   29   30 1  
    34   30   31 ar 
    35   30   32 ar 
    36   26   27 2  
    37   39   48 1  
    38   41   40 1  
    39   40   43 1  
    40   40   39 1  
    41   40   49 1  
    42   43   50 1  
    43   43   51 1  
    44   43   44 1  
    45   44   52 1  
    46   44   53 1  
    47   44   45 1  
    48   45   46 ar 
    49   45   47 ar 
    50   41   42 2  
    51   54   62 1  
    52   55   56 1  
    53   55   58 1  
    54   54   55 1  
    55   55   64 1  
    56   58   65 1  
    57   58   59 1  
    58   58   60 1  
    59   59   66 1  
    60   59   67 1  
    61   60   68 1  
    62   60   69 1  
    63   60   70 1  
    64   59   61 1  
    65   61   71 1  
    66   61   72 1  
    67   61   73 1  
    68   56   63 ar 
    69   56   57 ar 
    70    3    1 am 
    71   24    5 am 
    72   39   26 am 
    73   41   54 am 
    74    1   74 ar 
@<TRIPOS>SUBSTRUCTURE
     1 ACE         1

