### 
### Created by X-TOOL on Mon Sep 10 21:12:45 2018
### 

@<TRIPOS>MOLECULE
1siv_ligand
   89    89     1     0     0
SMALL
GAST_HUCK


@<TRIPOS>ATOM
      1 N           6.3210   16.3470   32.3890 N.4       1 PSI         0.2377
      2 CA1         6.1780   15.1570   33.2190 C.3       1 PSI         0.0621
      3 CB1         7.4680   14.8260   33.9450 C.3       1 PSI        -0.0040
      4 C1          5.1000   15.4110   34.2600 C.2       1 PSI         0.2264
      5 O1          4.7450   16.5620   34.5420 O.2       1 PSI        -0.3907
      6 N2          4.5530   14.3870   34.8220 N.am      1 PSI        -0.2613
      7 CA2         3.5220   14.5460   35.8010 C.3       1 PSI         0.1282
      8 CB2         2.2050   14.3110   35.1050 C.3       1 PSI        -0.0244
      9 C2          3.7600   13.5250   36.9140 C.2       1 PSI         0.2018
     10 O2          3.5460   12.3220   36.7610 O.2       1 PSI        -0.3945
     11 N3          4.2150   13.9480   38.0820 N.am      1 PSI        -0.2775
     12 CA3         4.4520   13.0110   39.1770 C.3       1 PSI         0.0775
     13 CB3         5.8220   13.3150   39.7520 C.3       1 PSI         0.0064
     14 CG3         6.9110   13.0670   38.7320 C.ar      1 PSI        -0.0408
     15 CD31        7.5420   14.1430   38.1310 C.ar      1 PSI        -0.0603
     16 CD32        7.2680   11.7740   38.4250 C.ar      1 PSI        -0.0603
     17 CE31        8.5410   13.9490   37.2100 C.ar      1 PSI        -0.0686
     18 CE32        8.2690   11.5820   37.5010 C.ar      1 PSI        -0.0686
     19 CZ3         8.8990   12.6610   36.8980 C.ar      1 PSI        -0.0687
     20 C3          3.3430   13.1250   40.2330 C.3       1 PSI         0.0819
     21 O3          3.2270   14.4600   40.7050 O.3       1 PSI        -0.3892
     22 CX4         1.9690   12.7550   39.7840 C.3       1 PSI        -0.0076
     23 CA4         1.1170   12.3780   40.9510 C.3       1 PSI         0.0398
     24 C4          1.5270   11.0000   41.4510 C.2       1 PSI         0.1783
     25 O4          1.8450   10.1220   40.6350 O.2       1 PSI        -0.3969
     26 N5          1.5240   10.7800   42.7580 N.am      1 PSI        -0.2654
     27 CA5         1.8820    9.4760   43.2270 C.3       1 PSI         0.1332
     28 CB5         3.2720    9.3430   43.9190 C.3       1 PSI        -0.0063
     29 CG51        3.5120    7.8660   44.2020 C.3       1 PSI        -0.0584
     30 CG52        4.4250    9.8050   43.0380 C.3       1 PSI        -0.0584
     31 C5          0.8310    9.2020   44.2720 C.2       1 PSI         0.2042
     32 O5          0.5940    9.9730   45.2060 O.2       1 PSI        -0.3944
     33 N6          0.1870    8.0630   44.1370 N.am      1 PSI        -0.2621
     34 CA6        -0.8350    7.6230   45.0770 C.3       1 PSI         0.1445
     35 CB6        -2.2130    7.4720   44.3940 C.3       1 PSI        -0.0049
     36 CG61       -2.6520    8.8320   43.8880 C.3       1 PSI        -0.0583
     37 CG62       -2.1560    6.4120   43.3150 C.3       1 PSI        -0.0583
     38 C6         -0.3580    6.2630   45.6270 C.2       1 PSI         0.2596
     39 O6          0.6610    5.6870   45.2290 O.2       1 PSI        -0.3678
     40 OM6        -1.0360    5.6020   46.6760 O.3       1 PSI        -0.2784
     41 CM6        -0.1460    5.0100   47.6450 C.3       1 PSI         0.0658
     42 H1          7.0343   16.1886   31.6947 H         1 PSI         0.2015
     43 H2          6.5827   17.1303   32.9669 H         1 PSI         0.2015
     44 H3          5.4449   16.5448   31.9315 H         1 PSI         0.2015
     45 H4          5.8902   14.3064   32.5837 H         1 PSI         0.1095
     46 H5          7.3222   13.9252   34.5593 H         1 PSI         0.0310
     47 H6          7.7513   15.6692   34.5921 H         1 PSI         0.0310
     48 H7          8.2659   14.6435   33.2101 H         1 PSI         0.0310
     49 H8          4.8543   13.4675   34.5694 H         1 PSI         0.1884
     50 H9          3.5444   15.5621   36.2217 H         1 PSI         0.0797
     51 H10         1.3832   14.4247   35.8273 H         1 PSI         0.0277
     52 H11         2.1876   13.2937   34.6869 H         1 PSI         0.0277
     53 H12         2.0835   15.0432   34.2932 H         1 PSI         0.0277
     54 H13         4.3990   14.9216   38.2169 H         1 PSI         0.1857
     55 H14         4.4504   11.9842   38.7825 H         1 PSI         0.0604
     56 H15         5.9955   12.6699   40.6259 H         1 PSI         0.0449
     57 H16         5.8548   14.3698   40.0625 H         1 PSI         0.0449
     58 H17         7.2431   15.1519   38.3913 H         1 PSI         0.0557
     59 H18         6.7752   10.9318   38.8971 H         1 PSI         0.0557
     60 H19         9.0351   14.7920   36.7406 H         1 PSI         0.0599
     61 H20         8.5697   10.5736   37.2405 H         1 PSI         0.0599
     62 H21         9.6838   12.4848   36.1713 H         1 PSI         0.0559
     63 H22         3.6220   12.4662   41.0685 H         1 PSI         0.0619
     64 H23         4.0747   14.7618   41.0095 H         1 PSI         0.2099
     65 H24         2.0324   11.9019   39.0925 H         1 PSI         0.0315
     66 H25         1.5145   13.6131   39.2672 H         1 PSI         0.0315
     67 H26         0.0611   12.3577   40.6434 H         1 PSI         0.0503
     68 H27         1.2502   13.1154   41.7563 H         1 PSI         0.0503
     69 H28         1.2780   11.5063   43.3998 H         1 PSI         0.1883
     70 H29         1.8277    8.7552   42.3979 H         1 PSI         0.0802
     71 H30         3.2688    9.9215   44.8546 H         1 PSI         0.0343
     72 H31         4.4889    7.7406   44.6919 H         1 PSI         0.0234
     73 H32         3.5016    7.3049   43.2559 H         1 PSI         0.0234
     74 H33         2.7190    7.4856   44.8626 H         1 PSI         0.0234
     75 H34         4.3010   10.8721   42.8016 H         1 PSI         0.0234
     76 H35         4.4309    9.2213   42.1057 H         1 PSI         0.0234
     77 H36         5.3759    9.6554   43.5703 H         1 PSI         0.0234
     78 H37         0.4078    7.4759   43.3582 H         1 PSI         0.1885
     79 H38        -0.9220    8.3506   45.8974 H         1 PSI         0.0819
     80 H39        -2.9425    7.1396   45.1472 H         1 PSI         0.0344
     81 H40        -3.6328    8.7419   43.3983 H         1 PSI         0.0235
     82 H41        -1.9144    9.2097   43.1647 H         1 PSI         0.0235
     83 H42        -2.7274    9.5311   44.7339 H         1 PSI         0.0235
     84 H43        -1.8314    5.4577   43.7554 H         1 PSI         0.0235
     85 H44        -1.4413    6.7187   42.5371 H         1 PSI         0.0235
     86 H45        -3.1538    6.2892   42.8685 H         1 PSI         0.0235
     87 H46        -0.7360    4.5143   48.4300 H         1 PSI         0.0577
     88 H47         0.4789    5.7947   48.0964 H         1 PSI         0.0577
     89 H48         0.4976    4.2696   47.1475 H         1 PSI         0.0577
@<TRIPOS>BOND
     1    1    2 1  
     2    2    4 1  
     3    2    3 1  
     4    4    6 am 
     5    4    5 2  
     6    6    7 1  
     7    7    9 1  
     8    7    8 1  
     9    9   11 am 
    10    9   10 2  
    11   11   12 1  
    12   12   20 1  
    13   12   13 1  
    14   13   14 1  
    15   14   16 ar 
    16   14   15 ar 
    17   15   17 ar 
    18   17   19 ar 
    19   19   18 ar 
    20   18   16 ar 
    21   20   22 1  
    22   20   21 1  
    23   22   23 1  
    24   23   24 1  
    25   24   26 am 
    26   24   25 2  
    27   26   27 1  
    28   27   31 1  
    29   27   28 1  
    30   28   30 1  
    31   28   29 1  
    32   31   33 am 
    33   31   32 2  
    34   33   34 1  
    35   34   38 1  
    36   34   35 1  
    37   35   37 1  
    38   35   36 1  
    39   38   40 1  
    40   38   39 2  
    41   40   41 1  
    42    1   42 1  
    43    1   43 1  
    44    1   44 1  
    45    2   45 1  
    46    3   46 1  
    47    3   47 1  
    48    3   48 1  
    49    6   49 1  
    50    7   50 1  
    51    8   51 1  
    52    8   52 1  
    53    8   53 1  
    54   11   54 1  
    55   12   55 1  
    56   13   56 1  
    57   13   57 1  
    58   15   58 1  
    59   16   59 1  
    60   17   60 1  
    61   18   61 1  
    62   19   62 1  
    63   20   63 1  
    64   21   64 1  
    65   22   65 1  
    66   22   66 1  
    67   23   67 1  
    68   23   68 1  
    69   26   69 1  
    70   27   70 1  
    71   28   71 1  
    72   29   72 1  
    73   29   73 1  
    74   29   74 1  
    75   30   75 1  
    76   30   76 1  
    77   30   77 1  
    78   33   78 1  
    79   34   79 1  
    80   35   80 1  
    81   36   81 1  
    82   36   82 1  
    83   36   83 1  
    84   37   84 1  
    85   37   85 1  
    86   37   86 1  
    87   41   87 1  
    88   41   88 1  
    89   41   89 1  
@<TRIPOS>SUBSTRUCTURE
     1 PSI         1

