### 
### Created by X-TOOL on Mon Sep 10 21:12:52 2018
### 

@<TRIPOS>MOLECULE
1sj0_ligand
   63    67     1     0     0
SMALL
GAST_HUCK


@<TRIPOS>ATOM
      1 C1         31.1720   -0.2380   28.7070 C.3       1 E4D         0.0833
      2 C2         31.2760   -1.6690   28.1770 C.3       1 E4D         0.1278
      3 O3         30.0500   -2.3690   28.4310 O.3       1 E4D        -0.3110
      4 C4         28.8610   -1.9480   27.9670 C.ar      1 E4D         0.0950
      5 C5         27.9320   -2.9010   27.5800 C.ar      1 E4D        -0.0469
      6 C6         26.7240   -2.5350   27.0030 C.ar      1 E4D        -0.0488
      7 C7         26.3460   -1.1830   27.0310 C.ar      1 E4D         0.0705
      8 O8         25.1280   -0.8570   26.5840 O.3       1 E4D        -0.3420
      9 C9         27.2840   -0.2150   27.4260 C.ar      1 E4D        -0.0295
     10 C10        28.5550   -0.5630   27.8540 C.ar      1 E4D         0.0387
     11 S11        29.6080    0.4570   28.1910 S.3       1 E4D        -0.0894
     12 C12        32.4700    0.4800   28.4200 C.ar      1 E4D        -0.0343
     13 C13        32.6800    1.3800   27.3730 C.ar      1 E4D        -0.0673
     14 C14        33.9320    1.9870   27.2050 C.ar      1 E4D        -0.0398
     15 C15        34.9760    1.6980   28.0990 C.ar      1 E4D         0.0805
     16 O16        36.1910    2.2510   27.9230 O.3       1 E4D        -0.3376
     17 C17        34.7830    0.7840   29.1430 C.ar      1 E4D        -0.0398
     18 C18        33.5190    0.2030   29.3110 C.ar      1 E4D        -0.0673
     19 C19        31.6300   -1.8400   26.7020 C.ar      1 E4D        -0.0182
     20 C20        32.6480   -2.7670   26.4480 C.ar      1 E4D        -0.0658
     21 C21        33.0730   -3.0500   25.1480 C.ar      1 E4D        -0.0395
     22 C22        32.4960   -2.3520   24.0600 C.ar      1 E4D         0.0843
     23 C23        31.4550   -1.4710   24.2950 C.ar      1 E4D        -0.0395
     24 C24        31.0470   -1.1710   25.6230 C.ar      1 E4D        -0.0658
     25 O25        32.9110   -2.5720   22.7850 O.3       1 E4D        -0.3172
     26 C26        34.0020   -3.4000   22.3460 C.3       1 E4D         0.1086
     27 C27        33.6550   -4.3840   21.2060 C.3       1 E4D        -0.0037
     28 N28        32.8000   -4.0120   20.0540 N.4       1 E4D         0.2371
     29 C29        31.5970   -3.2410   20.3190 C.3       1 E4D        -0.0318
     30 C30        30.5570   -3.2640   19.1770 C.3       1 E4D        -0.0123
     31 C31        31.1870   -2.9120   17.8130 C.3       1 E4D        -0.0434
     32 C32        32.4130   -3.8420   17.6170 C.3       1 E4D        -0.0123
     33 C33        33.4340   -3.6740   18.7760 C.3       1 E4D        -0.0318
     34 H1         31.1121   -0.2948   29.8039 H         1 E4D         0.0625
     35 H2         32.0760   -2.1572   28.7529 H         1 E4D         0.0819
     36 H3         28.1530   -3.9515   27.7308 H         1 E4D         0.0496
     37 H4         26.0850   -3.2781   26.5399 H         1 E4D         0.0458
     38 H5         25.0050    0.0820   26.6596 H         1 E4D         0.2443
     39 H6         27.0061    0.8323   27.3952 H         1 E4D         0.0461
     40 H7         31.8719    1.6099   26.6880 H         1 E4D         0.0530
     41 H8         34.0944    2.6786   26.3862 H         1 E4D         0.0525
     42 H9         36.7758    1.9531   28.6098 H         1 E4D         0.2458
     43 H10        35.5987    0.5302   29.8104 H         1 E4D         0.0525
     44 H11        33.3484   -0.4713   30.1424 H         1 E4D         0.0530
     45 H12        33.1179   -3.2776   27.2808 H         1 E4D         0.0531
     46 H13        33.8382   -3.7978   24.9737 H         1 E4D         0.0525
     47 H14        30.9461   -1.0055   23.4587 H         1 E4D         0.0525
     48 H15        30.2829   -0.4225   25.7988 H         1 E4D         0.0531
     49 H16        34.3543   -3.9861   23.2076 H         1 E4D         0.0665
     50 H17        34.8105   -2.7419   21.9949 H         1 E4D         0.0665
     51 H18        33.1616   -5.2423   21.6855 H         1 E4D         0.0841
     52 H19        34.6165   -4.7052   20.7791 H         1 E4D         0.0841
     53 H20        32.4052   -4.9132   19.8348 H         1 E4D         0.2034
     54 H21        31.8907   -2.1957   20.4952 H         1 E4D         0.0814
     55 H22        31.1218   -3.6460   21.2246 H         1 E4D         0.0814
     56 H23        29.7664   -2.5330   19.4020 H         1 E4D         0.0317
     57 H24        30.1187   -4.2711   19.1162 H         1 E4D         0.0317
     58 H25        31.5080   -1.8599   17.8069 H         1 E4D         0.0269
     59 H26        30.4567   -3.0772   17.0072 H         1 E4D         0.0269
     60 H27        32.9052   -3.5917   16.6657 H         1 E4D         0.0317
     61 H28        32.0704   -4.8869   17.5889 H         1 E4D         0.0317
     62 H29        34.2912   -4.3422   18.6063 H         1 E4D         0.0814
     63 H30        33.7824   -2.6311   18.8065 H         1 E4D         0.0814
@<TRIPOS>BOND
     1    1    2 1  
     2    1   11 1  
     3    1   12 1  
     4    2    3 1  
     5    2   19 1  
     6    3    4 1  
     7    4    5 ar 
     8    4   10 ar 
     9    5    6 ar 
    10    6    7 ar 
    11    7    8 1  
    12    7    9 ar 
    13    9   10 ar 
    14   10   11 1  
    15   12   13 ar 
    16   12   18 ar 
    17   13   14 ar 
    18   14   15 ar 
    19   15   16 1  
    20   15   17 ar 
    21   17   18 ar 
    22   19   20 ar 
    23   19   24 ar 
    24   20   21 ar 
    25   21   22 ar 
    26   22   23 ar 
    27   22   25 1  
    28   23   24 ar 
    29   25   26 1  
    30   26   27 1  
    31   27   28 1  
    32   28   29 1  
    33   28   33 1  
    34   29   30 1  
    35   30   31 1  
    36   31   32 1  
    37   32   33 1  
    38    1   34 1  
    39    2   35 1  
    40    5   36 1  
    41    6   37 1  
    42    8   38 1  
    43    9   39 1  
    44   13   40 1  
    45   14   41 1  
    46   16   42 1  
    47   17   43 1  
    48   18   44 1  
    49   20   45 1  
    50   21   46 1  
    51   23   47 1  
    52   24   48 1  
    53   26   49 1  
    54   26   50 1  
    55   27   51 1  
    56   27   52 1  
    57   28   53 1  
    58   29   54 1  
    59   29   55 1  
    60   30   56 1  
    61   30   57 1  
    62   31   58 1  
    63   31   59 1  
    64   32   60 1  
    65   32   61 1  
    66   33   62 1  
    67   33   63 1  
@<TRIPOS>SUBSTRUCTURE
     1 E4D         1

