### 
### Created by X-TOOL on Mon Sep 10 21:12:45 2018
### 

@<TRIPOS>MOLECULE
1sld_ligand
   97   100     1     0     0
SMALL
GAST_HUCK


@<TRIPOS>ATOM
      1 C           8.1590   -0.0420  -19.8590 C.2       1 ACE         0.1752
      2 O           7.8100    0.4600  -18.7900 O.2       1 ACE        -0.3972
      3 CH3A        7.2350    0.0310  -21.0660 C.3       1 ACE         0.0258
      4 N           9.3130   -0.7040  -19.9710 N.am      1 CYS        -0.2650
      5 CA         10.1070   -0.9770  -18.7920 C.3       1 CYS         0.1406
      6 C          10.8520    0.2700  -18.3020 C.2       1 CYS         0.2049
      7 O          11.5850    0.9850  -19.0130 O.2       1 CYS        -0.3943
      8 CB         11.0730   -2.1000  -19.0960 C.3       1 CYS         0.0443
      9 SG         12.0640   -2.4580  -17.6320 S.3       1 CYS        -0.0882
     10 N          10.4880    0.5110  -17.0350 N.am      1 HIS        -0.2619
     11 CA         10.7190    1.7700  -16.3450 C.3       1 HIS         0.1423
     12 C          12.1510    1.9000  -15.9020 C.2       1 HIS         0.2085
     13 O          12.6740    0.8560  -15.4930 O.2       1 HIS        -0.3940
     14 CB          9.7460    1.7980  -15.1660 C.3       1 HIS         0.0427
     15 CG          9.7600    3.0700  -14.3340 C.2       1 HIS         0.0561
     16 ND1        10.6880    3.2400  -13.3950 N.pl3     1 HIS        -0.2623
     17 CD2         8.9030    4.1200  -14.4910 C.2       1 HIS        -0.0276
     18 CE1        10.3890    4.4480  -12.9460 C.2       1 HIS         0.0875
     19 NE2         9.3480    4.9640  -13.5910 N.2       1 HIS        -0.3437
     20 N          12.7760    3.0910  -15.8250 N.am      1 PRO        -0.2497
     21 CA         14.1370    3.2220  -15.3610 C.3       1 PRO         0.1338
     22 C          14.4390    2.7090  -13.9480 C.2       1 PRO         0.2041
     23 O          15.5950    2.4310  -13.6120 O.2       1 PRO        -0.3944
     24 CB         14.4100    4.7100  -15.5830 C.3       1 PRO        -0.0104
     25 CG         13.1200    5.4340  -15.7510 C.3       1 PRO        -0.0281
     26 CD         12.2850    4.3550  -16.3940 C.3       1 PRO         0.0369
     27 N          13.4400    2.5530  -13.0580 N.am      1 GLN        -0.2636
     28 CA         13.6740    1.9140  -11.7580 C.3       1 GLN         0.1330
     29 C          14.0970    0.4530  -11.9150 C.2       1 GLN         0.2042
     30 O          14.7670   -0.1200  -11.0460 O.2       1 GLN        -0.3944
     31 CB         12.4070    1.9790  -10.9160 C.3       1 GLN         0.0045
     32 CG         12.6090    1.6190   -9.4400 C.3       1 GLN         0.0412
     33 CD         11.3400    1.6990   -8.6100 C.2       1 GLN         0.1737
     34 OE1        10.5330    2.5870   -8.8400 O.2       1 GLN        -0.3973
     35 NE2        10.9990    0.8540   -7.6540 N.am      1 GLN        -0.3009
     36 N          13.6980   -0.1040  -13.0590 N.am      1 PHE        -0.2619
     37 CA         13.8550   -1.4970  -13.3700 C.3       1 PHE         0.1404
     38 C          14.9460   -1.6830  -14.4570 C.2       1 PHE         0.2060
     39 O          15.8460   -2.5240  -14.2760 O.2       1 PHE        -0.3942
     40 CB         12.3900   -2.0190  -13.7410 C.3       1 PHE         0.0214
     41 CG         11.4310   -1.7700  -12.5690 C.ar      1 PHE        -0.0386
     42 CD1        11.6030   -2.4610  -11.3620 C.ar      1 PHE        -0.0601
     43 CD2        10.4290   -0.7780  -12.6330 C.ar      1 PHE        -0.0601
     44 CE1        10.7850   -2.1500  -10.2470 C.ar      1 PHE        -0.0686
     45 CE2         9.6240   -0.4850  -11.5060 C.ar      1 PHE        -0.0686
     46 CZ          9.7980   -1.1670  -10.3040 C.ar      1 PHE        -0.0687
     47 N          15.0010   -0.9050  -15.5410 N.am      1 CYS        -0.2628
     48 CA         15.9540   -1.1400  -16.6100 C.3       1 CYS         0.1403
     49 C          16.4820    0.1780  -17.1740 C.2       1 CYS         0.2000
     50 O          15.7870    0.9430  -17.8450 O.2       1 CYS        -0.3947
     51 CB         15.2370   -1.9560  -17.6860 C.3       1 CYS         0.0443
     52 SG         13.6200   -1.2340  -18.1550 S.3       1 CYS        -0.0882
     53 N          17.7400    0.4980  -16.9180 N.am      1 NH2        -0.2989
     54 H1          7.7116   -0.4670  -21.9232 H         1 ACE         0.0467
     55 H2          7.0405    1.0845  -21.3157 H         1 ACE         0.0467
     56 H3          6.2851   -0.4717  -20.8316 H         1 ACE         0.0467
     57 H4          9.6286   -1.0110  -20.8689 H         1 CYS         0.1883
     58 H5          9.4312   -1.3056  -17.9887 H         1 CYS         0.0808
     59 H6         11.7349   -1.8002  -19.9218 H         1 CYS         0.0432
     60 H7         10.5096   -2.9993  -19.3856 H         1 CYS         0.0432
     61 H8         10.0285   -0.2212  -16.5323 H         1 HIS         0.1885
     62 H9         10.4911    2.6054  -17.0233 H         1 HIS         0.0824
     63 H10         9.9940    0.9566  -14.5023 H         1 HIS         0.0491
     64 H11         8.7289    1.6644  -15.5631 H         1 HIS         0.0491
     65 H12        11.4390    2.6011  -13.0972 H         1 HIS         0.2386
     66 H13         8.0685    4.2288  -15.1822 H         1 HIS         0.0324
     67 H14        10.9284    4.9559  -12.1478 H         1 HIS         0.1149
     68 H15        14.7865    2.6427  -16.0337 H         1 PRO         0.0802
     69 H16        15.0228    4.8390  -16.4873 H         1 PRO         0.0313
     70 H17        14.9480    5.1172  -14.7143 H         1 PRO         0.0313
     71 H18        13.2278    6.3101  -16.4073 H         1 PRO         0.0287
     72 H19        12.7018    5.7496  -14.7838 H         1 PRO         0.0287
     73 H20        12.4193    4.3635  -17.4857 H         1 PRO         0.0524
     74 H21        11.2209    4.4974  -16.1543 H         1 PRO         0.0524
     75 H22        12.5227    2.8784  -13.2873 H         1 GLN         0.1883
     76 H23        14.4770    2.4591  -11.2403 H         1 GLN         0.0801
     77 H24        11.6735    1.2796  -11.3435 H         1 GLN         0.0337
     78 H25        12.0107    3.0038  -10.9691 H         1 GLN         0.0337
     79 H26        13.3476    2.3127   -9.0118 H         1 GLN         0.0504
     80 H27        12.9958    0.5908   -9.3837 H         1 GLN         0.0504
     81 H28        10.1415    0.9822   -7.1558 H         1 GLN         0.1814
     82 H29        11.5984    0.0860   -7.4283 H         1 GLN         0.1814
     83 H30        13.2633    0.4838  -13.7413 H         1 PHE         0.1885
     84 H31        14.1935   -2.0357  -12.4727 H         1 PHE         0.0823
     85 H32        12.4309   -3.0971  -13.9552 H         1 PHE         0.0474
     86 H33        12.0262   -1.4821  -14.6295 H         1 PHE         0.0474
     87 H34        12.3605   -3.2322  -11.2812 H         1 PHE         0.0557
     88 H35        10.2738   -0.2333  -13.5573 H         1 PHE         0.0557
     89 H36        10.9315   -2.6936   -9.3207 H         1 PHE         0.0599
     90 H37         8.8609    0.2814  -11.5795 H         1 PHE         0.0599
     91 H38         9.1848   -0.9404   -9.4393 H         1 PHE         0.0559
     92 H39        14.3658   -0.1366  -15.6185 H         1 CYS         0.1884
     93 H40        16.8037   -1.7194  -16.2199 H         1 CYS         0.0808
     94 H41        15.0710   -2.9742  -17.3042 H         1 CYS         0.0432
     95 H42        15.8763   -1.9993  -18.5801 H         1 CYS         0.0432
     96 H43        18.1202    1.3530  -17.2708 H         1 NH2         0.1815
     97 H44        18.3107   -0.1151  -16.3717 H         1 NH2         0.1815
@<TRIPOS>BOND
     1    1    2 2  
     2    1    3 1  
     3    6    5 1  
     4    5    8 1  
     5    5    4 1  
     6    8    9 1  
     7    6    7 2  
     8   12   11 1  
     9   11   14 1  
    10   11   10 1  
    11   14   15 1  
    12   15   17 2  
    13   15   16 1  
    14   16   18 1  
    15   18   19 2  
    16   17   19 1  
    17   12   13 2  
    18   21   20 1  
    19   21   24 1  
    20   22   21 1  
    21   22   23 2  
    22   24   25 1  
    23   25   26 1  
    24   20   26 1  
    25   29   28 1  
    26   28   31 1  
    27   28   27 1  
    28   31   32 1  
    29   32   33 1  
    30   33   34 2  
    31   33   35 am 
    32   29   30 2  
    33   38   37 1  
    34   37   40 1  
    35   37   36 1  
    36   40   41 1  
    37   41   43 ar 
    38   41   42 ar 
    39   42   44 ar 
    40   44   46 ar 
    41   45   46 ar 
    42   43   45 ar 
    43   38   39 2  
    44   48   49 1  
    45   48   51 1  
    46   47   48 1  
    47   51   52 1  
    48   49   50 2  
    49    4    1 am 
    50   10    6 am 
    51   20   12 am 
    52   27   22 am 
    53   36   29 am 
    54   38   47 am 
    55    9   52 1  
    56   49   53 am 
    57    3   54 1  
    58    3   55 1  
    59    3   56 1  
    60    4   57 1  
    61    5   58 1  
    62    8   59 1  
    63    8   60 1  
    64   10   61 1  
    65   11   62 1  
    66   14   63 1  
    67   14   64 1  
    68   16   65 1  
    69   17   66 1  
    70   18   67 1  
    71   21   68 1  
    72   24   69 1  
    73   24   70 1  
    74   25   71 1  
    75   25   72 1  
    76   26   73 1  
    77   26   74 1  
    78   27   75 1  
    79   28   76 1  
    80   31   77 1  
    81   31   78 1  
    82   32   79 1  
    83   32   80 1  
    84   35   81 1  
    85   35   82 1  
    86   36   83 1  
    87   37   84 1  
    88   40   85 1  
    89   40   86 1  
    90   42   87 1  
    91   43   88 1  
    92   44   89 1  
    93   45   90 1  
    94   46   91 1  
    95   47   92 1  
    96   48   93 1  
    97   51   94 1  
    98   51   95 1  
    99   53   96 1  
   100   53   97 1  
@<TRIPOS>SUBSTRUCTURE
     1 ACE         1

