### 
### Created by X-TOOL on Mon Sep 10 21:12:45 2018
### 

@<TRIPOS>MOLECULE
1sle_ligand
  112   116     1     0     0
SMALL
GAST_HUCK


@<TRIPOS>ATOM
      1 H1         19.0917   -2.7374   21.7583 H         1 ACE         0.0467
      2 H2         19.2606   -3.6001   23.3247 H         1 ACE         0.0467
      3 H3         20.6320   -3.5673   22.1650 H         1 ACE         0.0467
      4 H4         20.4581    0.2872   23.3353 H         1 CYS         0.1883
      5 H5         18.9283   -1.0185   21.1495 H         1 CYS         0.0808
      6 H6         16.9179    0.2593   21.7590 H         1 CYS         0.0432
      7 H7         17.7658    0.9507   23.1837 H         1 CYS         0.0432
      8 H8         20.3485   -0.0108   19.6457 H         1 HIS         0.1885
      9 H9         21.5399    2.5101   19.9044 H         1 HIS         0.0824
     10 H10        20.6028    1.1679   17.3282 H         1 HIS         0.0491
     11 H11        22.0898    0.7256   18.2337 H         1 HIS         0.0491
     12 H12        20.5432    3.5581   16.2286 H         1 HIS         0.2386
     13 H13        24.2571    2.3557   17.9705 H         1 HIS         0.0324
     14 H14        22.3629    5.2540   15.5418 H         1 HIS         0.1149
     15 H15        18.0099    5.1933   19.5380 H         1 PRO         0.0802
     16 H16        19.1933    6.9216   20.4435 H         1 PRO         0.0313
     17 H17        19.2797    7.5514   18.7635 H         1 PRO         0.0313
     18 H18        21.5297    7.0758   20.0797 H         1 PRO         0.0287
     19 H19        21.3884    6.5446   18.3696 H         1 PRO         0.0287
     20 H20        21.0472    4.8987   20.9151 H         1 PRO         0.0524
     21 H21        22.0182    4.5243   19.4510 H         1 PRO         0.0524
     22 H22        19.7559    4.3960   16.5501 H         1 GLN         0.1883
     23 H23        17.8624    5.9482   14.9437 H         1 GLN         0.0801
     24 H24        19.7897    3.7341   14.1336 H         1 GLN         0.0337
     25 H25        20.2449    5.4630   14.3082 H         1 GLN         0.0337
     26 H26        18.6288    6.0689   12.5558 H         1 GLN         0.0504
     27 H27        18.1635    4.3424   12.3847 H         1 GLN         0.0504
     28 H28        20.4348    4.3045    9.6985 H         1 GLN         0.1814
     29 H29        18.7747    4.3021   10.1925 H         1 GLN         0.1814
     30 H30        17.9446    2.7185   16.3852 H         1 GLY         0.1881
     31 H31        16.1239    1.5772   14.4327 H         1 GLY         0.0763
     32 H32        16.6777    0.8295   15.9692 H         1 GLY         0.0763
     33 H33        12.1650    2.0310   16.3125 H         1 PRO         0.0802
     34 H34        11.6666    0.0009   15.2132 H         1 PRO         0.0313
     35 H35        11.1531   -0.3987   16.8875 H         1 PRO         0.0313
     36 H36        12.8968   -2.0366   15.7565 H         1 PRO         0.0287
     37 H37        13.3157   -1.4253   17.3928 H         1 PRO         0.0287
     38 H38        14.2573   -0.4036   14.6608 H         1 PRO         0.0524
     39 H39        15.2291   -0.7049   16.1412 H         1 PRO         0.0524
     40 H40        11.8004    1.9796   21.0129 H         1 PRO         0.0802
     41 H41         9.5737    1.5906   21.6399 H         1 PRO         0.0313
     42 H42         9.3483    0.2918   20.4196 H         1 PRO         0.0313
     43 H43         9.5776    3.3177   19.9577 H         1 PRO         0.0287
     44 H44         8.2930    2.1995   19.3867 H         1 PRO         0.0287
     45 H45        10.3441    2.8476   17.7374 H         1 PRO         0.0524
     46 H46         9.7419    1.1560   17.7884 H         1 PRO         0.0524
     47 H47        12.5532    0.3959   22.5351 H         1 CYS         0.1884
     48 H48        13.0536   -2.2445   21.2322 H         1 CYS         0.0808
     49 H49        14.9103   -0.4181   22.7859 H         1 CYS         0.0432
     50 H50        14.9019   -0.6947   21.0110 H         1 CYS         0.0432
     51 H51        12.3613   -4.1504   23.9052 H         1 NH2         0.1815
     52 H52        12.7429   -3.9554   22.2270 H         1 NH2         0.1815
     53 C          20.3050   -1.7120   23.2220 C.2       1 ACE         0.1752
     54 O          21.0950   -1.8610   24.1520 O.2       1 ACE        -0.3972
     55 CH3        19.7860   -2.9940   22.5720 C.3       1 ACE         0.0258
     56 N          19.9970   -0.4720   22.8760 N.am      1 CYS        -0.2650
     57 CA         19.0160   -0.1800   21.8560 C.3       1 CYS         0.1406
     58 C          19.4960    1.0710   21.1320 C.2       1 CYS         0.2049
     59 O          19.2470    2.1830   21.6030 O.2       1 CYS        -0.3943
     60 CB         17.6770    0.0690   22.5320 C.3       1 CYS         0.0443
     61 SG         17.1530   -1.3490   23.5320 S.3       1 CYS        -0.0882
     62 N          20.2020    0.9120   20.0020 N.am      1 HIS        -0.2619
     63 CA         20.7610    2.0480   19.2800 C.3       1 HIS         0.1423
     64 C          19.7060    3.1080   18.9690 C.2       1 HIS         0.2085
     65 O          18.6170    2.7480   18.5050 O.2       1 HIS        -0.3940
     66 CB         21.3960    1.5440   17.9910 C.3       1 HIS         0.0427
     67 CG         22.1680    2.6450   17.2610 C.2       1 HIS         0.0561
     68 ND1        21.5370    3.5340   16.4980 N.pl3     1 HIS        -0.2623
     69 CD2        23.5050    2.9120   17.4130 C.2       1 HIS        -0.0276
     70 CE1        22.4970    4.3760   16.1720 C.2       1 HIS         0.0875
     71 NE2        23.6410    4.0100   16.7130 N.2       1 HIS        -0.3437
     72 N          19.9130    4.4140   19.1850 N.am      1 PRO        -0.2497
     73 CA         18.8800    5.4220   18.9050 C.3       1 PRO         0.1338
     74 C          18.3290    5.5150   17.4720 C.2       1 PRO         0.2041
     75 O          17.3280    6.1990   17.2640 O.2       1 PRO        -0.3944
     76 CB         19.5250    6.7020   19.4180 C.3       1 PRO        -0.0104
     77 CG         20.9880    6.4160   19.3860 C.3       1 PRO        -0.0281
     78 CD         21.0930    4.9910   19.8200 C.3       1 PRO         0.0369
     79 N          18.9040    4.9020   16.4150 N.am      1 GLN        -0.2636
     80 CA         18.3190    4.9580   15.0890 C.3       1 GLN         0.1330
     81 C          17.2280    3.8910   14.9150 C.2       1 GLN         0.2038
     82 O          16.3120    4.0770   14.1190 O.2       1 GLN        -0.3944
     83 CB         19.4260    4.7700   14.0650 C.3       1 GLN         0.0045
     84 CG         18.9860    5.0310   12.6280 C.3       1 GLN         0.0412
     85 CD         20.0990    4.8320   11.6090 C.2       1 GLN         0.1737
     86 OE1        21.2950    5.0300   11.8620 O.2       1 GLN        -0.3973
     87 NE2        19.7410    4.4490   10.4040 N.am      1 GLN        -0.3009
     88 N          17.2440    2.8060   15.6770 N.am      1 GLY        -0.2664
     89 CA         16.2720    1.7430   15.5100 C.3       1 GLY         0.1203
     90 C          14.9170    2.0320   16.1390 C.2       1 GLY         0.2032
     91 O          14.6450    3.1670   16.5570 O.2       1 GLY        -0.3945
     92 N          14.0140    1.0340   16.2030 N.am      1 PRO        -0.2501
     93 CA         12.6660    1.1600   16.7600 C.3       1 PRO         0.1340
     94 C          12.6220    1.3570   18.2900 C.2       1 PRO         0.2066
     95 O          13.6710    1.3540   18.9390 O.2       1 PRO        -0.3942
     96 CB         12.0060   -0.1160   16.2530 C.3       1 PRO        -0.0104
     97 CG         13.1170   -1.1370   16.3500 C.3       1 PRO        -0.0281
     98 CD         14.2640   -0.3410   15.7590 C.3       1 PRO         0.0369
     99 N          11.4700    1.5300   18.9620 N.am      1 PRO        -0.2498
    100 CA         11.3010    1.2230   20.3900 C.3       1 PRO         0.1338
    101 C          11.9040   -0.1500   20.6910 C.2       1 PRO         0.2041
    102 O          11.7650   -1.0810   19.8820 O.2       1 PRO        -0.3944
    103 CB          9.8120    1.2700   20.6150 C.3       1 PRO        -0.0104
    104 CG          9.3670    2.2980   19.6030 C.3       1 PRO        -0.0281
    105 CD         10.2040    1.9630   18.3760 C.3       1 PRO         0.0369
    106 N          12.5570   -0.3210   21.8380 N.am      1 CYS        -0.2629
    107 CA         13.2710   -1.5560   22.0620 C.3       1 CYS         0.1403
    108 C          12.8630   -2.2700   23.3440 C.2       1 CYS         0.2000
    109 O          12.7060   -1.7090   24.4340 O.2       1 CYS        -0.3947
    110 CB         14.7520   -1.1650   21.9940 C.3       1 CYS         0.0443
    111 SG         16.0800   -2.3930   22.1790 S.3       1 CYS        -0.0882
    112 N          12.6370   -3.5660   23.1420 N.am      1 NH2        -0.2989
@<TRIPOS>BOND
     1   55    1 1  
     2   55    2 1  
     3   55    3 1  
     4   56    4 1  
     5   57    5 1  
     6   60    6 1  
     7   60    7 1  
     8   62    8 1  
     9   63    9 1  
    10   66   10 1  
    11   66   11 1  
    12   68   12 1  
    13   69   13 1  
    14   70   14 1  
    15   73   15 1  
    16   76   16 1  
    17   76   17 1  
    18   77   18 1  
    19   77   19 1  
    20   78   20 1  
    21   78   21 1  
    22   79   22 1  
    23   80   23 1  
    24   83   24 1  
    25   83   25 1  
    26   84   26 1  
    27   84   27 1  
    28   87   28 1  
    29   87   29 1  
    30   88   30 1  
    31   89   31 1  
    32   89   32 1  
    33   93   33 1  
    34   96   34 1  
    35   96   35 1  
    36   97   36 1  
    37   97   37 1  
    38   98   38 1  
    39   98   39 1  
    40  100   40 1  
    41  103   41 1  
    42  103   42 1  
    43  104   43 1  
    44  104   44 1  
    45  105   45 1  
    46  105   46 1  
    47  106   47 1  
    48  107   48 1  
    49  110   49 1  
    50  110   50 1  
    51   53   54 2  
    52   53   55 1  
    53   57   58 1  
    54   60   57 1  
    55   57   56 1  
    56   61   60 1  
    57   58   59 2  
    58   63   64 1  
    59   63   66 1  
    60   62   63 1  
    61   66   67 1  
    62   67   69 2  
    63   67   68 1  
    64   68   70 1  
    65   70   71 2  
    66   69   71 1  
    67   64   65 2  
    68   72   73 1  
    69   73   76 1  
    70   73   74 1  
    71   74   75 2  
    72   77   76 1  
    73   78   77 1  
    74   72   78 1  
    75   81   80 1  
    76   80   83 1  
    77   80   79 1  
    78   83   84 1  
    79   84   85 1  
    80   85   86 2  
    81   85   87 am 
    82   81   82 2  
    83   90   89 1  
    84   89   88 1  
    85   90   91 2  
    86   93   92 1  
    87   93   96 1  
    88   94   93 1  
    89   94   95 2  
    90   96   97 1  
    91   97   98 1  
    92   92   98 1  
    93  100   99 1  
    94  100  103 1  
    95  101  100 1  
    96  101  102 2  
    97  103  104 1  
    98  104  105 1  
    99   99  105 1  
   100  108  107 1  
   101  107  110 1  
   102  107  106 1  
   103  110  111 1  
   104  108  109 2  
   105  112   51 1  
   106  112   52 1  
   107   56   53 am 
   108   58   62 am 
   109   64   72 am 
   110   74   79 am 
   111   88   81 am 
   112   92   90 am 
   113   99   94 am 
   114  106  101 am 
   115  111   61 1  
   116  108  112 am 
@<TRIPOS>SUBSTRUCTURE
     1 ACE         1

