### 
### Created by X-TOOL on Mon Sep 10 21:12:45 2018
### 

@<TRIPOS>MOLECULE
1sln_ligand
   70    71     1     0     0
SMALL
GAST_HUCK


@<TRIPOS>ATOM
      1 C1        -20.8810   92.7570   80.0450 C.3       1 INH        -0.0094
      2 C2        -20.6740   91.7610   81.2030 C.3       1 INH         0.0293
      3 C3        -21.4490   92.1930   82.4460 C.2       1 INH         0.0842
      4 O4        -22.5710   92.6880   82.2780 O.co2     1 INH        -0.5643
      5 O5        -20.9680   92.0520   83.6000 O.co2     1 INH        -0.5643
      6 N6        -19.2180   91.5520   81.4010 N.4       1 INH         0.2597
      7 C7        -18.4830   92.7610   81.7960 C.3       1 INH         0.0701
      8 C8        -17.6010   92.4470   83.0160 C.3       1 INH         0.0177
      9 C9        -16.6970   93.5990   83.4310 C.3       1 INH        -0.0119
     10 C10       -15.9460   93.4590   84.7170 C.ar      1 INH        -0.0427
     11 C11       -16.1080   94.3990   85.7320 C.ar      1 INH        -0.0603
     12 C12       -15.4040   94.2980   86.9130 C.ar      1 INH        -0.0686
     13 C13       -14.5200   93.2530   87.1000 C.ar      1 INH        -0.0687
     14 C14       -14.3430   92.3040   86.0990 C.ar      1 INH        -0.0686
     15 C15       -15.0570   92.4120   84.9130 C.ar      1 INH        -0.0603
     16 C16       -17.6120   93.1920   80.6250 C.2       1 INH         0.2270
     17 O17       -17.0520   92.3480   79.9240 O.2       1 INH        -0.3907
     18 N18       -17.5090   94.4990   80.4140 N.am      1 INH        -0.2605
     19 C19       -16.6880   95.0260   79.3340 C.3       1 INH         0.1369
     20 C20       -17.3250   96.2500   78.7240 C.3       1 INH        -0.0087
     21 C21       -18.7080   96.0660   78.2300 C.3       1 INH        -0.0156
     22 C22       -19.1180   97.3930   77.7240 C.3       1 INH         0.0627
     23 N23       -20.4800   97.4260   77.2320 N.pl3     1 INH        -0.2723
     24 C24       -21.2060   98.5430   77.2000 C.cat     1 INH         0.2882
     25 N25       -22.4510   98.5220   76.7260 N.pl3     1 INH        -0.2849
     26 N26       -20.6810   99.6840   77.6540 N.pl3     1 INH        -0.2849
     27 C27       -15.3180   95.4410   79.8410 C.2       1 INH         0.2292
     28 O28       -15.1850   95.8800   80.9810 O.2       1 INH        -0.3823
     29 N29       -14.3380   95.4060   78.9360 N.am      1 INH        -0.2320
     30 C30       -13.0100   95.7090   79.0520 C.ar      1 INH         0.0663
     31 C31       -12.1430   95.2530   78.0650 C.ar      1 INH        -0.0413
     32 C32       -10.7660   95.4940   78.1530 C.ar      1 INH        -0.0755
     33 C33       -10.2570   96.1960   79.2290 C.ar      1 INH        -0.0772
     34 C34       -11.1100   96.6600   80.2160 C.ar      1 INH        -0.0755
     35 C35       -12.4840   96.4150   80.1230 C.ar      1 INH        -0.0413
     36 H1        -21.9577   92.9195   79.8893 H         1 INH         0.0303
     37 H2        -20.4352   92.3487   79.1260 H         1 INH         0.0303
     38 H3        -20.3980   93.7136   80.2933 H         1 INH         0.0303
     39 H4        -21.0965   90.7938   80.8931 H         1 INH         0.1023
     40 H5        -18.8270   91.2132   80.5359 H         1 INH         0.2052
     41 H6        -19.0936   90.8574   82.1208 H         1 INH         0.2052
     42 H7        -19.1909   93.5638   82.0497 H         1 INH         0.1101
     43 H8        -16.9691   91.5799   82.7736 H         1 INH         0.0368
     44 H9        -18.2566   92.1976   83.8634 H         1 INH         0.0368
     45 H10       -17.3255   94.4980   83.5128 H         1 INH         0.0429
     46 H11       -15.9560   93.7412   82.6306 H         1 INH         0.0429
     47 H12       -16.7984   95.2228   85.5911 H         1 INH         0.0557
     48 H13       -15.5438   95.0372   87.6934 H         1 INH         0.0599
     49 H14       -13.9642   93.1727   88.0272 H         1 INH         0.0559
     50 H15       -13.6502   91.4830   86.2441 H         1 INH         0.0599
     51 H16       -14.9186   91.6717   84.1333 H         1 INH         0.0557
     52 H17       -18.0046   95.1327   81.0080 H         1 INH         0.1885
     53 H18       -16.5743   94.2483   78.5645 H         1 INH         0.0805
     54 H19       -16.7016   96.5704   77.8762 H         1 INH         0.0314
     55 H20       -17.3399   97.0414   79.4879 H         1 INH         0.0314
     56 H21       -19.3699   95.7434   79.0472 H         1 INH         0.0301
     57 H22       -18.7330   95.3203   77.4217 H         1 INH         0.0301
     58 H23       -18.4437   97.6764   76.9024 H         1 INH         0.0689
     59 H24       -19.0253   98.1220   78.5425 H         1 INH         0.0689
     60 H25       -20.9045   96.5508   76.8932 H         1 INH         0.2642
     61 H26       -23.0081   99.3880   76.7034 H         1 INH         0.2615
     62 H27       -22.8564   97.6397   76.3822 H         1 INH         0.2615
     63 H28       -19.7183   99.6982   78.0200 H         1 INH         0.2615
     64 H29       -21.2388  100.5498   77.6381 H         1 INH         0.2615
     65 H30       -14.6213   95.1097   78.0239 H         1 INH         0.2257
     66 H31       -12.5375   94.7045   77.2174 H         1 INH         0.0502
     67 H32       -10.1007   95.1304   77.3783 H         1 INH         0.0577
     68 H33        -9.1916   96.3831   79.3002 H         1 INH         0.0487
     69 H34       -10.7134   97.2126   81.0600 H         1 INH         0.0577
     70 H35       -13.1464   96.7820   80.8986 H         1 INH         0.0502
@<TRIPOS>BOND
     1    1    2 1  
     2    2    6 1  
     3    2    3 1  
     4    3    5 ar 
     5    3    4 ar 
     6    6    7 1  
     7    7   16 1  
     8    7    8 1  
     9    8    9 1  
    10    9   10 1  
    11   10   15 ar 
    12   10   11 ar 
    13   11   12 ar 
    14   12   13 ar 
    15   13   14 ar 
    16   14   15 ar 
    17   16   18 am 
    18   16   17 2  
    19   18   19 1  
    20   19   27 1  
    21   19   20 1  
    22   20   21 1  
    23   21   22 1  
    24   22   23 1  
    25   23   24 ar 
    26   24   26 ar 
    27   24   25 ar 
    28   27   29 am 
    29   27   28 2  
    30   29   30 1  
    31   30   35 ar 
    32   30   31 ar 
    33   31   32 ar 
    34   32   33 ar 
    35   33   34 ar 
    36   34   35 ar 
    37    1   36 1  
    38    1   37 1  
    39    1   38 1  
    40    2   39 1  
    41    6   40 1  
    42    6   41 1  
    43    7   42 1  
    44    8   43 1  
    45    8   44 1  
    46    9   45 1  
    47    9   46 1  
    48   11   47 1  
    49   12   48 1  
    50   13   49 1  
    51   14   50 1  
    52   15   51 1  
    53   18   52 1  
    54   19   53 1  
    55   20   54 1  
    56   20   55 1  
    57   21   56 1  
    58   21   57 1  
    59   22   58 1  
    60   22   59 1  
    61   23   60 1  
    62   25   61 1  
    63   25   62 1  
    64   26   63 1  
    65   26   64 1  
    66   29   65 1  
    67   31   66 1  
    68   32   67 1  
    69   33   68 1  
    70   34   69 1  
    71   35   70 1  
@<TRIPOS>SUBSTRUCTURE
     1 INH         1

