### 
### Created by X-TOOL on Mon Sep 10 21:12:52 2018
### 

@<TRIPOS>MOLECULE
1sm2_ligand
   62    69     1     0     0
SMALL
GAST_HUCK


@<TRIPOS>ATOM
      1 C1         18.8100   -7.3760    4.9010 C.ar      1 STU        -0.0696
      2 C2         17.5880   -7.2530    5.6540 C.ar      1 STU        -0.0759
      3 C3         17.4940   -7.9160    6.9180 C.ar      1 STU        -0.0739
      4 C4         18.6170   -8.7030    7.4300 C.ar      1 STU        -0.0408
      5 C5         19.8470   -8.8110    6.6630 C.ar      1 STU         0.0695
      6 N6         21.0820   -9.4370    6.9110 N.pl3     1 STU        -0.2292
      7 C7         21.8600   -9.1270    5.8050 C.ar      1 STU         0.0978
      8 C8         23.2560   -9.5090    5.5120 C.ar      1 STU         0.0952
      9 N9         24.0750  -10.3030    6.3160 N.pl3     1 STU        -0.2376
     10 C10        25.2500  -10.3760    5.5560 C.ar      1 STU         0.0681
     11 C11        26.4660  -11.0660    5.7820 C.ar      1 STU        -0.0404
     12 C12        27.5050  -10.9830    4.7960 C.ar      1 STU        -0.0732
     13 C13        27.3300  -10.2110    3.5960 C.ar      1 STU        -0.0750
     14 C14        26.1080   -9.5100    3.3490 C.ar      1 STU        -0.0685
     15 C15        25.0620   -9.5960    4.3330 C.ar      1 STU        -0.0072
     16 C16        23.7960   -9.0280    4.2670 C.ar      1 STU        -0.0018
     17 C17        23.1030   -8.2380    3.3520 C.ar      1 STU         0.0320
     18 C18        23.4810   -7.6410    2.0720 C.2       1 STU         0.1871
     19 N19        22.4740   -6.8630    1.6170 N.am      1 STU        -0.2790
     20 C20        21.2840   -6.9790    2.4990 C.3       1 STU         0.0603
     21 C21        21.8090   -7.8830    3.6240 C.ar      1 STU        -0.0168
     22 C22        21.1230   -8.3110    4.8590 C.ar      1 STU         0.0011
     23 C23        19.9010   -8.1440    5.4320 C.ar      1 STU        -0.0075
     24 C24        21.5030  -10.1570    8.1460 C.3       1 STU         0.2020
     25 C25        22.0880   -9.1060    9.1770 C.3       1 STU         0.1556
     26 C26        23.3260   -9.7630    9.8150 C.3       1 STU         0.0141
     27 C27        24.3480  -10.0430    8.7580 C.3       1 STU         0.0455
     28 C28        23.8440  -10.9380    7.6170 C.3       1 STU         0.1668
     29 O29        22.4260  -11.1890    7.8080 O.3       1 STU        -0.3149
     30 O30        24.5440   -7.7940    1.4950 O.2       1 STU        -0.3964
     31 N31        23.8930   -8.8670   10.8230 N.4       1 STU         0.2291
     32 C32        24.7340   -9.5330   11.8500 C.3       1 STU        -0.0445
     33 O33        22.6120   -7.9060    8.5450 O.3       1 STU        -0.3686
     34 C34        21.8530   -6.7100    8.5560 C.3       1 STU         0.0373
     35 C35        20.3860  -10.8800    8.9030 C.3       1 STU        -0.0059
     36 H1         18.9056   -6.8903    3.9366 H         1 STU         0.0566
     37 H2         16.7578   -6.6707    5.2710 H         1 STU         0.0516
     38 H3         16.5839   -7.8350    7.5013 H         1 STU         0.0561
     39 H4         18.5310   -9.2076    8.3855 H         1 STU         0.0538
     40 H5         26.6094  -11.6475    6.6855 H         1 STU         0.0539
     41 H6         28.4375  -11.5112    4.9586 H         1 STU         0.0568
     42 H7         28.1334  -10.1596    2.8700 H         1 STU         0.0516
     43 H8         25.9735   -8.9290    2.4438 H         1 STU         0.0576
     44 H9         22.5230   -6.2887    0.7998 H         1 STU         0.1863
     45 H10        20.4394   -7.4465    1.9717 H         1 STU         0.0679
     46 H11        20.9760   -5.9966    2.8863 H         1 STU         0.0679
     47 H12        21.3258   -8.8469    9.9266 H         1 STU         0.0710
     48 H13        23.0301  -10.7080   10.2939 H         1 STU         0.0880
     49 H14        25.2075  -10.5396    9.2320 H         1 STU         0.0372
     50 H15        24.6705   -9.0837    8.3272 H         1 STU         0.0372
     51 H16        24.3866  -11.8944    7.6451 H         1 STU         0.0933
     52 H17        23.1316   -8.4040   11.2941 H         1 STU         0.2014
     53 H18        24.4611   -8.1823   10.3492 H         1 STU         0.2014
     54 H19        25.1120   -8.7810   12.5583 H         1 STU         0.0777
     55 H20        25.5819  -10.0346   11.3607 H         1 STU         0.0777
     56 H21        24.1311  -10.2766   12.3918 H         1 STU         0.0777
     57 H22        22.4094   -5.9179    8.0335 H         1 STU         0.0524
     58 H23        21.6675   -6.4030    9.5959 H         1 STU         0.0524
     59 H24        20.8928   -6.8804    8.0471 H         1 STU         0.0524
     60 H25        20.8056  -11.3742    9.7916 H         1 STU         0.0284
     61 H26        19.9267  -11.6339    8.2468 H         1 STU         0.0284
     62 H27        19.6231  -10.1514    9.2146 H         1 STU         0.0284
@<TRIPOS>BOND
     1    1    2 ar 
     2    1   23 ar 
     3    2    3 ar 
     4    3    4 ar 
     5    4    5 ar 
     6    5    6 1  
     7    5   23 ar 
     8    6    7 1  
     9    6   24 1  
    10    7    8 ar 
    11    7   22 ar 
    12    8    9 1  
    13    8   16 ar 
    14    9   10 1  
    15    9   28 1  
    16   10   11 ar 
    17   10   15 ar 
    18   11   12 ar 
    19   12   13 ar 
    20   13   14 ar 
    21   14   15 ar 
    22   15   16 1  
    23   16   17 ar 
    24   17   18 1  
    25   17   21 ar 
    26   18   19 am 
    27   18   30 2  
    28   19   20 1  
    29   20   21 1  
    30   21   22 ar 
    31   22   23 1  
    32   24   25 1  
    33   24   29 1  
    34   24   35 1  
    35   25   26 1  
    36   25   33 1  
    37   26   27 1  
    38   26   31 1  
    39   27   28 1  
    40   28   29 1  
    41   31   32 1  
    42   33   34 1  
    43    1   36 1  
    44    2   37 1  
    45    3   38 1  
    46    4   39 1  
    47   11   40 1  
    48   12   41 1  
    49   13   42 1  
    50   14   43 1  
    51   19   44 1  
    52   20   45 1  
    53   20   46 1  
    54   25   47 1  
    55   26   48 1  
    56   27   49 1  
    57   27   50 1  
    58   28   51 1  
    59   31   52 1  
    60   31   53 1  
    61   32   54 1  
    62   32   55 1  
    63   32   56 1  
    64   34   57 1  
    65   34   58 1  
    66   34   59 1  
    67   35   60 1  
    68   35   61 1  
    69   35   62 1  
@<TRIPOS>SUBSTRUCTURE
     1 STU         1

