### 
### Created by X-TOOL on Mon Sep 10 21:12:51 2018
### 

@<TRIPOS>MOLECULE
1snk_ligand
   58    58     1     0     0
SMALL
GAST_HUCK


@<TRIPOS>ATOM
      1 C2        -17.2420   30.7340   76.3180 C.3       1 MYE        -0.0558
      2 C3        -17.0590   31.4290   77.6750 C.3       1 MYE        -0.0511
      3 C4        -15.7270   32.2230   77.6910 C.3       1 MYE        -0.0278
      4 C5        -15.6540   33.1020   78.9830 C.3       1 MYE         0.0651
      5 N6        -16.6100   34.1840   78.8960 N.am      1 MYE        -0.2798
      6 C7        -17.4310   34.4170   79.9100 C.2       1 MYE         0.2019
      7 O8        -17.3960   33.6950   80.8890 O.2       1 MYE        -0.3945
      8 C9        -18.4200   35.5780   79.8510 C.3       1 MYE         0.1329
      9 C10       -17.9180   36.6880   80.7920 C.3       1 MYE        -0.0101
     10 C11       -18.0650   38.0980   80.1720 C.3       1 MYE        -0.0425
     11 C12       -18.2100   39.1170   81.2920 C.3       1 MYE        -0.0625
     12 C13       -19.2760   38.1740   79.2560 C.3       1 MYE        -0.0625
     13 N14       -19.6880   35.1180   80.3480 N.am      1 MYE        -0.2411
     14 C15       -20.5120   34.3410   79.6060 C.2       1 MYE         0.3240
     15 O16       -20.1100   33.7820   78.5810 O.2       1 MYE        -0.3773
     16 O17       -21.7600   34.1870   79.9990 O.3       1 MYE        -0.2500
     17 C18       -22.3260   32.9870   79.5440 C.3       1 MYE         0.1126
     18 C19       -23.1770   32.3890   80.6330 C.ar      1 MYE        -0.0101
     19 C20       -23.8470   31.2070   80.4030 C.ar      1 MYE        -0.0550
     20 C21       -24.6260   30.6500   81.3960 C.ar      1 MYE        -0.0589
     21 C22       -24.7420   31.2800   82.6310 C.ar      1 MYE         0.0056
     22 BR2       -25.8320   30.4850   84.0100 Br        1 MYE        -0.0561
     23 C24       -24.0700   32.4700   82.8660 C.ar      1 MYE        -0.0589
     24 C25       -23.2890   33.0270   81.8690 C.ar      1 MYE        -0.0550
     25 C26       -14.2840   33.6910   79.1250 C.3       1 MYE         0.0671
     26 O27       -13.3350   32.6870   79.0380 O.3       1 MYE        -0.3927
     27 C1        -16.5350   29.3660   76.3400 C.3       1 MYE        -0.0653
     28 H1        -16.8060   31.3589   75.5247 H         1 MYE         0.0263
     29 H2        -18.3147   30.5888   76.1225 H         1 MYE         0.0263
     30 H3        -17.0407   30.6715   78.4724 H         1 MYE         0.0266
     31 H4        -17.8971   32.1208   77.8456 H         1 MYE         0.0266
     32 H5        -15.6770   32.8716   76.8040 H         1 MYE         0.0288
     33 H6        -14.8815   31.5195   77.6790 H         1 MYE         0.0288
     34 H7        -15.8804   32.4786   79.8605 H         1 MYE         0.0579
     35 H8        -16.6513   34.7533   78.0749 H         1 MYE         0.1855
     36 H9        -18.5176   35.9535   78.8217 H         1 MYE         0.0799
     37 H10       -16.8557   36.5089   81.0144 H         1 MYE         0.0315
     38 H11       -18.4995   36.6500   81.7250 H         1 MYE         0.0315
     39 H12       -17.1622   38.3269   79.5868 H         1 MYE         0.0298
     40 H13       -18.3152   40.1234   80.8607 H         1 MYE         0.0232
     41 H14       -17.3178   39.0850   81.9347 H         1 MYE         0.0232
     42 H15       -19.1018   38.8796   81.8906 H         1 MYE         0.0232
     43 H16       -19.1702   37.4368   78.4465 H         1 MYE         0.0232
     44 H17       -19.3473   39.1837   78.8254 H         1 MYE         0.0232
     45 H18       -20.1867   37.9564   79.8333 H         1 MYE         0.0232
     46 H19       -19.9704   35.3801   81.2708 H         1 MYE         0.1899
     47 H20       -21.5251   32.2823   79.2758 H         1 MYE         0.0783
     48 H21       -22.9492   33.1875   78.6600 H         1 MYE         0.0783
     49 H22       -23.7619   30.7145   79.4411 H         1 MYE         0.0565
     50 H23       -25.1494   29.7185   81.2134 H         1 MYE         0.0626
     51 H24       -24.1563   32.9623   83.8279 H         1 MYE         0.0626
     52 H25       -22.7644   33.9586   82.0479 H         1 MYE         0.0565
     53 H26       -14.1998   34.1905   80.1014 H         1 MYE         0.0580
     54 H27       -14.1158   34.4241   78.3223 H         1 MYE         0.0580
     55 H28       -12.4677   33.0639   79.1284 H         1 MYE         0.2095
     56 H29       -16.6670   28.8694   75.3674 H         1 MYE         0.0230
     57 H30       -16.9709   28.7407   77.1330 H         1 MYE         0.0230
     58 H31       -15.4622   29.5108   76.5352 H         1 MYE         0.0230
@<TRIPOS>BOND
     1    1    2 1  
     2    1   27 1  
     3    2    3 1  
     4    3    4 1  
     5    4    5 1  
     6    4   25 1  
     7    5    6 am 
     8    6    7 2  
     9    6    8 1  
    10    8    9 1  
    11    8   13 1  
    12    9   10 1  
    13   10   11 1  
    14   10   12 1  
    15   13   14 am 
    16   14   15 2  
    17   14   16 1  
    18   16   17 1  
    19   17   18 1  
    20   18   19 ar 
    21   18   24 ar 
    22   19   20 ar 
    23   20   21 ar 
    24   21   22 1  
    25   21   23 ar 
    26   23   24 ar 
    27   25   26 1  
    28    1   28 1  
    29    1   29 1  
    30    2   30 1  
    31    2   31 1  
    32    3   32 1  
    33    3   33 1  
    34    4   34 1  
    35    5   35 1  
    36    8   36 1  
    37    9   37 1  
    38    9   38 1  
    39   10   39 1  
    40   11   40 1  
    41   11   41 1  
    42   11   42 1  
    43   12   43 1  
    44   12   44 1  
    45   12   45 1  
    46   13   46 1  
    47   17   47 1  
    48   17   48 1  
    49   19   49 1  
    50   20   50 1  
    51   23   51 1  
    52   24   52 1  
    53   25   53 1  
    54   25   54 1  
    55   26   55 1  
    56   27   56 1  
    57   27   57 1  
    58   27   58 1  
@<TRIPOS>SUBSTRUCTURE
     1 MYE         1

