### 
### Created by X-TOOL on Mon Sep 10 21:12:52 2018
### 

@<TRIPOS>MOLECULE
1so2_ligand
   54    57     1     0     0
SMALL
GAST_HUCK


@<TRIPOS>ATOM
      1 C1         64.6380    1.7810    7.4770 C.ar      1 666        -0.0659
      2 C2         64.4330    2.4140    8.7490 C.ar      1 666        -0.0575
      3 C3         64.6860    1.7000    9.9980 C.ar      1 666        -0.0383
      4 C4         65.1560    0.3260    9.9120 C.ar      1 666        -0.0489
      5 C5         65.3740   -0.3470    8.6080 C.ar      1 666         0.0026
      6 C6         65.1080    0.4050    7.4120 C.ar      1 666        -0.0580
      7 C11        64.4640    2.3950   11.3560 C.3       1 666        -0.0031
      8 C12        63.2160    3.2920   11.3690 C.2       1 666         0.0125
      9 C15        61.9440    2.8970   11.5700 C.2       1 666         0.0560
     10 C16        60.9490    3.6210   12.5240 C.3       1 666         0.0109
     11 C17        60.9380    5.1950   12.2730 C.3       1 666        -0.0246
     12 C18        62.5770    5.6440   12.4410 C.3       1 666         0.0137
     13 C19        63.6500    4.5510   12.2220 C.2       1 666         0.0889
     14 N26        61.5800    1.6900   10.7750 N.pl3     1 666        -0.2674
     15 C27        60.4780    0.9210   10.6330 C.ar      1 666         0.0637
     16 C28        59.4320    0.8880   11.5990 C.ar      1 666        -0.0382
     17 C29        58.3200    0.0610   11.4530 C.ar      1 666        -0.0638
     18 C30        58.2080   -0.7880   10.3090 C.ar      1 666        -0.0200
     19 C31        59.2420   -0.7720    9.3010 C.ar      1 666        -0.0638
     20 C32        60.3820    0.0900    9.4650 C.ar      1 666        -0.0382
     21 C37        57.0610   -1.6940   10.2260 C.2       1 666         0.0415
     22 N38        56.9590   -2.6250    9.2070 N.2       1 666        -0.2073
     23 N39        56.0280   -3.4790    9.0970 N.am      1 666        -0.1838
     24 C40        54.8330   -3.4740    9.7710 C.2       1 666         0.2166
     25 C41        54.6200   -2.2900   10.7390 C.3       1 666         0.0562
     26 C42        55.9320   -1.7220   11.3300 C.3       1 666         0.0158
     27 O45        64.7330    4.7000   12.7050 O.2       1 666        -0.4141
     28 O46        54.0100   -4.3150    9.6430 O.2       1 666        -0.3840
     29 C47        56.4010   -2.5900   12.5490 C.3       1 666        -0.0506
     30 I54        66.0770   -2.3830    8.4970 I         1 666        -0.0512
     31 H1         64.4423    2.3292    6.5625 H         1 666         0.0605
     32 H2         64.0843    3.4398    8.7833 H         1 666         0.0576
     33 H3         65.3525   -0.2216   10.8266 H         1 666         0.0584
     34 H4         65.2601   -0.0608    6.4451 H         1 666         0.0584
     35 H5         65.3444    3.0145   11.5819 H         1 666         0.0473
     36 H6         64.3501    1.6231   12.1314 H         1 666         0.0473
     37 H7         61.2471    3.4274   13.5650 H         1 666         0.0491
     38 H8         59.9372    3.2249   12.3525 H         1 666         0.0491
     39 H9         60.3128    5.7068   13.0194 H         1 666         0.0316
     40 H10        60.5690    5.4285   11.2634 H         1 666         0.0316
     41 H11        62.7079    6.0325   13.4617 H         1 666         0.0471
     42 H12        62.7734    6.4468   11.7151 H         1 666         0.0471
     43 H13        62.3609    1.3609   10.1895 H         1 666         0.2170
     44 H14        59.5030    1.5248   12.4734 H         1 666         0.0537
     45 H15        57.5407    0.0617   12.2065 H         1 666         0.0583
     46 H16        59.1596   -1.4060    8.4256 H         1 666         0.0583
     47 H17        61.1625    0.1123    8.7131 H         1 666         0.0537
     48 H18        56.1799   -4.2307    8.4553 H         1 666         0.2437
     49 H19        53.9848   -2.6313   11.5697 H         1 666         0.0531
     50 H20        54.1081   -1.4837   10.1932 H         1 666         0.0531
     51 H21        55.7480   -0.6942   11.6761 H         1 666         0.0478
     52 H22        57.3337   -2.1742   12.9579 H         1 666         0.0254
     53 H23        56.5751   -3.6243   12.2173 H         1 666         0.0254
     54 H24        55.6233   -2.5803   13.3269 H         1 666         0.0254
@<TRIPOS>BOND
     1    1    2 ar 
     2    1    6 ar 
     3    2    3 ar 
     4    3    4 ar 
     5    3    7 1  
     6    4    5 ar 
     7    5    6 ar 
     8    5   30 1  
     9    7    8 1  
    10    8    9 2  
    11    8   13 1  
    12    9   10 1  
    13    9   14 1  
    14   10   11 1  
    15   11   12 1  
    16   12   13 1  
    17   13   27 2  
    18   14   15 1  
    19   15   16 ar 
    20   15   20 ar 
    21   16   17 ar 
    22   17   18 ar 
    23   18   19 ar 
    24   18   21 1  
    25   19   20 ar 
    26   21   22 2  
    27   21   26 1  
    28   22   23 1  
    29   23   24 am 
    30   24   25 1  
    31   24   28 2  
    32   25   26 1  
    33   26   29 1  
    34    1   31 1  
    35    2   32 1  
    36    4   33 1  
    37    6   34 1  
    38    7   35 1  
    39    7   36 1  
    40   10   37 1  
    41   10   38 1  
    42   11   39 1  
    43   11   40 1  
    44   12   41 1  
    45   12   42 1  
    46   14   43 1  
    47   16   44 1  
    48   17   45 1  
    49   19   46 1  
    50   20   47 1  
    51   23   48 1  
    52   25   49 1  
    53   25   50 1  
    54   26   51 1  
    55   29   52 1  
    56   29   53 1  
    57   29   54 1  
@<TRIPOS>SUBSTRUCTURE
     1 666         1

