### 
### Created by X-TOOL on Mon Sep 10 21:12:52 2018
### 

@<TRIPOS>MOLECULE
1soj_ligand
   30    31     1     0     0
SMALL
GAST_HUCK


@<TRIPOS>ATOM
      1 N9        114.4950   -2.4400   13.2200 N.pl3     1 IBM        -0.2331
      2 C8        114.3200   -1.8640   12.0120 C.2       1 IBM         0.0869
      3 N7        113.4190   -0.8650   11.9970 N.2       1 IBM        -0.3333
      4 C5        112.9490   -0.7670   13.3580 C.2       1 IBM         0.1086
      5 C4        113.5620   -1.6960   14.0840 C.2       1 IBM         0.2028
      6 N3        113.2670   -1.8060   15.5430 N.am      1 IBM        -0.1692
      7 C2        112.3230   -0.9710   16.1560 C.2       1 IBM         0.3262
      8 N1        111.7000   -0.0140   15.3480 N.am      1 IBM        -0.1760
      9 C6        111.9440    0.1280   13.9820 C.2       1 IBM         0.2019
     10 O6        111.4190    0.9550   13.2310 O.2       1 IBM        -0.4078
     11 O2        112.0830   -1.0680   17.3540 O.2       1 IBM        -0.3843
     12 C10       110.7100    0.8770   16.0020 C.3       1 IBM         0.0476
     13 C11       113.9690   -2.8230   16.3440 C.3       1 IBM         0.0651
     14 C12       115.5020   -2.5450   16.3940 C.3       1 IBM        -0.0203
     15 C13       116.2430   -3.5970   17.2330 C.3       1 IBM        -0.0603
     16 C14       115.7970   -1.1140   16.9250 C.3       1 IBM        -0.0603
     17 H1        115.1271   -3.2120   13.4757 H         1 IBM         0.2397
     18 H2        114.8631   -2.1816   11.1231 H         1 IBM         0.1123
     19 H3        110.6437    0.6288   17.0716 H         1 IBM         0.0539
     20 H4        109.7253    0.7386   15.5318 H         1 IBM         0.0539
     21 H5        111.0271    1.9240   15.8876 H         1 IBM         0.0539
     22 H6        113.7988   -3.8128   15.8954 H         1 IBM         0.0599
     23 H7        113.5690   -2.8111   17.3686 H         1 IBM         0.0599
     24 H8        115.8850   -2.6074   15.3647 H         1 IBM         0.0320
     25 H9        117.3185   -3.3663   17.2436 H         1 IBM         0.0233
     26 H10       116.0860   -4.5932   16.7939 H         1 IBM         0.0233
     27 H11       115.8552   -3.5847   18.2623 H         1 IBM         0.0233
     28 H12       115.2579   -0.3770   16.3116 H         1 IBM         0.0233
     29 H13       116.8778   -0.9175   16.8687 H         1 IBM         0.0233
     30 H14       115.4639   -1.0349   17.9703 H         1 IBM         0.0233
@<TRIPOS>BOND
     1    1    2 1  
     2    1    5 1  
     3    2    3 2  
     4    3    4 1  
     5    4    5 2  
     6    4    9 1  
     7    5    6 1  
     8    6    7 am 
     9    6   13 1  
    10    7    8 am 
    11    7   11 2  
    12    8    9 am 
    13    8   12 1  
    14    9   10 2  
    15   13   14 1  
    16   14   15 1  
    17   14   16 1  
    18    1   17 1  
    19    2   18 1  
    20   12   19 1  
    21   12   20 1  
    22   12   21 1  
    23   13   22 1  
    24   13   23 1  
    25   14   24 1  
    26   15   25 1  
    27   15   26 1  
    28   15   27 1  
    29   16   28 1  
    30   16   29 1  
    31   16   30 1  
@<TRIPOS>SUBSTRUCTURE
     1 IBM         1

