### 
### Created by X-TOOL on Mon Sep 10 21:12:51 2018
### 

@<TRIPOS>MOLECULE
1sqa_ligand
   54    57     1     0     0
SMALL
GAST_HUCK


@<TRIPOS>ATOM
      1 N1         29.5520   11.8530   28.7170 N.4       1 UI1         0.2289
      2 C2         28.3300   11.0730   28.8590 C.3       1 UI1        -0.0082
      3 C3         27.2630   11.8440   29.6510 C.ar      1 UI1        -0.0133
      4 C4         26.5790   12.9060   29.0380 C.ar      1 UI1        -0.0682
      5 C5         25.6020   13.6060   29.7610 C.ar      1 UI1        -0.0471
      6 C6         25.2850   13.2590   31.1110 C.ar      1 UI1         0.0594
      7 N7         24.2440   14.0730   31.6860 N.am      1 UI1        -0.2371
      8 C8         24.5160   14.9930   32.5920 C.2       1 UI1         0.2269
      9 O9         25.6530   15.1500   33.0210 O.2       1 UI1        -0.3740
     10 C10        23.4180   15.9110   33.0260 C.ar      1 UI1         0.0420
     11 C11        23.7630   16.9690   33.8980 C.ar      1 UI1        -0.0212
     12 C12        22.8180   17.8960   34.2740 C.ar      1 UI1         0.0814
     13 N13        23.2180   18.9970   35.1110 N.pl3     1 UI1        -0.2366
     14 C14        23.7200   18.8390   36.4290 C.ar      1 UI1         0.2162
     15 N15        24.1540   19.9420   37.0850 N.ar      1 UI1        -0.2483
     16 C16        24.6250   19.8550   38.3490 C.ar      1 UI1         0.0160
     17 C17        24.6580   18.6020   38.9980 C.ar      1 UI1        -0.0217
     18 C18        24.2060   17.4800   38.2880 C.ar      1 UI1         0.0160
     19 N19        23.7470   17.6250   37.0220 N.ar      1 UI1        -0.2483
     20 C20        21.4730   17.7830   33.7830 C.ar      1 UI1         0.0152
     21 C21        20.5150   18.7550   34.1600 C.ar      1 UI1        -0.0470
     22 C22        19.1860   18.6620   33.6930 C.ar      1 UI1         0.0254
     23 C23        18.8010   17.5980   32.8540 C.ar      1 UI1        -0.0575
     24 C24        19.7560   16.6250   32.4690 C.ar      1 UI1        -0.0567
     25 C25        21.1010   16.7220   32.9310 C.ar      1 UI1        -0.0208
     26 C26        22.0770   15.7770   32.5410 C.ar      1 UI1        -0.0476
     27 C27        18.2380   19.7150   34.1260 C.cat     1 UI1         0.2346
     28 N28        18.6560   20.6930   34.8790 N.pl3     1 UI1        -0.2724
     29 N29        16.9650   19.6770   33.7560 N.pl3     1 UI1        -0.2724
     30 C30        25.9580   12.1980   31.7280 C.ar      1 UI1        -0.0471
     31 C31        26.9590   11.4880   30.9910 C.ar      1 UI1        -0.0682
     32 H1         30.2308   11.3218   28.1944 H         1 UI1         0.2005
     33 H2         29.9226   12.0661   29.6298 H         1 UI1         0.2005
     34 H3         29.3482   12.7108   28.2284 H         1 UI1         0.2005
     35 H4         28.5620   10.1370   29.3883 H         1 UI1         0.0950
     36 H5         27.9353   10.8406   27.8589 H         1 UI1         0.0950
     37 H6         26.8042   13.1826   28.0144 H         1 UI1         0.0522
     38 H7         25.0766   14.4268   29.2864 H         1 UI1         0.0488
     39 H8         23.2975   13.9381   31.3928 H         1 UI1         0.2231
     40 H9         24.7771   17.0504   34.2723 H         1 UI1         0.0523
     41 H10        23.1353   19.9514   34.7326 H         1 UI1         0.2211
     42 H11        24.9757   20.7433   38.8618 H         1 UI1         0.0903
     43 H12        25.0219   18.5096   40.0149 H         1 UI1         0.0673
     44 H13        24.2240   16.5000   38.7510 H         1 UI1         0.0903
     45 H14        20.8031   19.5736   34.8096 H         1 UI1         0.0632
     46 H15        17.7777   17.5240   32.5042 H         1 UI1         0.0617
     47 H16        19.4635   15.8057   31.8223 H         1 UI1         0.0609
     48 H17        21.8131   14.9585   31.8810 H         1 UI1         0.0557
     49 H18        17.9995   21.4267   35.1818 H         1 UI1         0.3181
     50 H19        19.6429   20.7323   35.1714 H         1 UI1         0.3181
     51 H20        16.6244   18.9084   33.1609 H         1 UI1         0.3181
     52 H21        16.3170   20.4161   34.0637 H         1 UI1         0.3181
     53 H22        25.7246   11.9181   32.7489 H         1 UI1         0.0488
     54 H23        27.4909   10.6691   31.4617 H         1 UI1         0.0522
@<TRIPOS>BOND
     1    1    2 1  
     2    2    3 1  
     3    3    4 ar 
     4    3   31 ar 
     5    4    5 ar 
     6    5    6 ar 
     7    6    7 1  
     8    6   30 ar 
     9    7    8 am 
    10    8    9 2  
    11    8   10 1  
    12   10   11 ar 
    13   10   26 ar 
    14   11   12 ar 
    15   12   13 1  
    16   12   20 ar 
    17   13   14 1  
    18   14   15 ar 
    19   14   19 ar 
    20   15   16 ar 
    21   16   17 ar 
    22   17   18 ar 
    23   18   19 ar 
    24   20   21 ar 
    25   20   25 ar 
    26   21   22 ar 
    27   22   23 ar 
    28   22   27 1  
    29   23   24 ar 
    30   24   25 ar 
    31   25   26 ar 
    32   27   28 ar 
    33   27   29 ar 
    34   30   31 ar 
    35    1   32 1  
    36    1   33 1  
    37    1   34 1  
    38    2   35 1  
    39    2   36 1  
    40    4   37 1  
    41    5   38 1  
    42    7   39 1  
    43   11   40 1  
    44   13   41 1  
    45   16   42 1  
    46   17   43 1  
    47   18   44 1  
    48   21   45 1  
    49   23   46 1  
    50   24   47 1  
    51   26   48 1  
    52   28   49 1  
    53   28   50 1  
    54   29   51 1  
    55   29   52 1  
    56   30   53 1  
    57   31   54 1  
@<TRIPOS>SUBSTRUCTURE
     1 UI1         1

