### 
### Created by X-TOOL on Mon Sep 10 21:12:52 2018
### 

@<TRIPOS>MOLECULE
1sqb_ligand
   47    49     1     0     0
SMALL
GAST_HUCK


@<TRIPOS>ATOM
      1 H          73.1010   52.1851  160.5192 H         1 AZO         0.0691
      2 H          71.0207   52.7649  159.2888 H         1 AZO         0.0559
      3 H          69.4206   54.4390  160.1695 H         1 AZO         0.0663
      4 H          69.8003   55.5335  162.3697 H         1 AZO         0.0583
      5 H          71.8319   56.3533  166.2675 H         1 AZO         0.0636
      6 H          68.6734   52.5828  165.9137 H         1 AZO         0.1061
      7 H          69.8662   53.9036  169.8563 H         1 AZO         0.0536
      8 H          68.2379   53.7218  171.7218 H         1 AZO         0.0537
      9 H          66.9051   55.6840  172.4239 H         1 AZO         0.0518
     10 H          67.1410   57.8772  171.2899 H         1 AZO         0.0528
     11 H          65.1263   57.7748  166.5651 H         1 AZO         0.0574
     12 H          66.4855   58.6956  165.8363 H         1 AZO         0.0574
     13 H          65.4152   59.4810  167.0463 H         1 AZO         0.0574
     14 H          70.0128   60.3850  169.1665 H         1 AZO         0.1282
     15 H          72.2312   59.3196  171.7607 H         1 AZO         0.0602
     16 H          71.1303   60.6717  171.3288 H         1 AZO         0.0602
     17 H          72.2286   59.9767  170.0889 H         1 AZO         0.0602
     18 N1         74.8120   52.9000  163.4520 N.1       1 AZO        -0.3380
     19 C1         73.8690   53.1850  162.8790 C.1       1 AZO         0.0926
     20 C2         72.6690   53.5090  162.1730 C.ar      1 AZO         0.1297
     21 C3         72.4060   52.9050  160.9360 C.ar      1 AZO        -0.0337
     22 C4         71.2270   53.2440  160.2390 C.ar      1 AZO        -0.0604
     23 C5         70.3050   54.1930  160.7460 C.ar      1 AZO        -0.0602
     24 C6         70.5200   54.8200  161.9850 C.ar      1 AZO        -0.0149
     25 C7         71.6880   54.5100  162.7270 C.ar      1 AZO         0.1600
     26 O1         71.8990   55.0640  163.9710 O.3       1 AZO        -0.2240
     27 C8         71.0620   54.7580  165.0250 C.ar      1 AZO         0.2005
     28 C9         71.1060   55.5540  166.1720 C.ar      1 AZO         0.0560
     29 C10        70.1860   55.2910  167.1960 C.ar      1 AZO         0.1966
     30 N3         69.3380   54.2220  167.0750 N.ar      1 AZO        -0.2504
     31 C11        69.3440   53.4320  165.9780 C.ar      1 AZO         0.0665
     32 N2         70.1890   53.7070  164.9650 N.ar      1 AZO        -0.2499
     33 O2         70.2280   56.0870  168.3290 O.3       1 AZO        -0.2359
     34 C12        69.3540   55.9640  169.3850 C.ar      1 AZO         0.1234
     35 C13        69.2500   54.7550  170.1220 C.ar      1 AZO        -0.0330
     36 C14        68.3500   54.6620  171.1940 C.ar      1 AZO        -0.0756
     37 C15        67.5910   55.7800  171.5900 C.ar      1 AZO        -0.0786
     38 C16        67.7000   57.0210  170.9300 C.ar      1 AZO        -0.0703
     39 C17        68.5330   57.1480  169.8060 C.ar      1 AZO         0.0089
     40 C18        68.7050   58.4960  169.1480 C.2       1 AZO         0.0802
     41 C19        67.8550   58.9390  168.2230 C.2       1 AZO         0.2388
     42 O3         67.9810   60.0560  167.7100 O.2       1 AZO        -0.3767
     43 O4         66.7570   58.0960  167.7990 O.3       1 AZO        -0.2865
     44 C20        65.8970   58.5370  166.7520 C.3       1 AZO         0.0638
     45 C21        69.8280   59.3980  169.5880 C.2       1 AZO         0.0937
     46 O5         70.6100   58.8230  170.6030 O.3       1 AZO        -0.3043
     47 C22        71.6040   59.7480  170.9650 C.3       1 AZO         0.0692
@<TRIPOS>BOND
     1   21    1 1  
     2   22    2 1  
     3   23    3 1  
     4   24    4 1  
     5   28    5 1  
     6   31    6 1  
     7   35    7 1  
     8   36    8 1  
     9   37    9 1  
    10   38   10 1  
    11   44   11 1  
    12   44   12 1  
    13   44   13 1  
    14   45   14 1  
    15   47   15 1  
    16   47   16 1  
    17   47   17 1  
    18   19   18 3  
    19   20   19 1  
    20   20   21 ar 
    21   25   20 ar 
    22   21   22 ar 
    23   23   22 ar 
    24   24   23 ar 
    25   25   24 ar 
    26   26   25 1  
    27   27   26 1  
    28   28   27 ar 
    29   27   32 ar 
    30   29   28 ar 
    31   29   30 ar 
    32   33   29 1  
    33   30   31 ar 
    34   31   32 ar 
    35   34   33 1  
    36   34   35 ar 
    37   39   34 ar 
    38   35   36 ar 
    39   37   36 ar 
    40   38   37 ar 
    41   39   38 ar 
    42   40   39 1  
    43   40   41 1  
    44   45   40 2  
    45   41   42 2  
    46   41   43 1  
    47   43   44 1  
    48   46   45 1  
    49   47   46 1  
@<TRIPOS>SUBSTRUCTURE
     1 AZO         1

