### 
### Created by X-TOOL on Fri Nov 18 12:07:45 2016
### 

@<TRIPOS>MOLECULE
1sqc_ligand
   48    47     1     0     0
SMALL
GAST_HUCK


@<TRIPOS>ATOM
      1 N1        102.5810   33.4600   19.2120 N.4       1 LDA         0.3971
      2 O1        102.8530   32.3760   18.7100 O.3       1 LDA        -0.3407
      3 CM1       103.5840   34.4490   18.8610 C.3       1 LDA        -0.0107
      4 CM2       101.4770   34.0640   18.4940 C.3       1 LDA        -0.0107
      5 C1        102.3320   33.4440   20.6670 C.3       1 LDA         0.0002
      6 C2        103.0950   32.3180   21.3980 C.3       1 LDA        -0.0114
      7 C3        103.4200   32.7780   22.8450 C.3       1 LDA        -0.0482
      8 C4        102.2540   32.3080   23.6980 C.3       1 LDA        -0.0529
      9 C5        102.2000   32.9780   25.0480 C.3       1 LDA        -0.0531
     10 C6        100.9560   32.3570   25.7470 C.3       1 LDA        -0.0531
     11 C7        101.4720   31.1700   26.5600 C.3       1 LDA        -0.0531
     12 C8        100.3550   30.4510   27.3390 C.3       1 LDA        -0.0531
     13 C9        100.2830   31.3410   28.5710 C.3       1 LDA        -0.0531
     14 C10       100.5650   30.5440   29.8380 C.3       1 LDA        -0.0533
     15 C11        99.1970   30.1920   30.3850 C.3       1 LDA        -0.0559
     16 C12        99.0590   28.6820   30.4450 C.3       1 LDA        -0.0653
     17 H1        102.8822   32.4645   17.7646 H         1 LDA         0.2695
     18 H2        103.3235   35.4142   19.3198 H         1 LDA         0.0788
     19 H3        103.6214   34.5612   17.7674 H         1 LDA         0.0788
     20 H4        104.5671   34.1212   19.2299 H         1 LDA         0.0788
     21 H5        101.2342   35.0370   18.9460 H         1 LDA         0.0788
     22 H6        100.5985   33.4044   18.5499 H         1 LDA         0.0788
     23 H7        101.7601   34.2093   17.4410 H         1 LDA         0.0788
     24 H8        101.2542   33.3042   20.8366 H         1 LDA         0.0825
     25 H9        102.6470   34.4106   21.0871 H         1 LDA         0.0825
     26 H10       104.0307   32.0997   20.8624 H         1 LDA         0.0317
     27 H11       102.4715   31.4124   21.4311 H         1 LDA         0.0317
     28 H12       103.5095   33.8735   22.8881 H         1 LDA         0.0267
     29 H13       104.3579   32.3195   23.1916 H         1 LDA         0.0267
     30 H14       102.3464   31.2224   23.8496 H         1 LDA         0.0265
     31 H15       101.3183   32.5251   23.1619 H         1 LDA         0.0265
     32 H16       102.0799   34.0657   24.9368 H         1 LDA         0.0265
     33 H17       103.1138   32.7668   25.6228 H         1 LDA         0.0265
     34 H18       100.2270   32.0171   24.9967 H         1 LDA         0.0265
     35 H19       100.4824   33.0961   26.4099 H         1 LDA         0.0265
     36 H20       102.2223   31.5345   27.2771 H         1 LDA         0.0265
     37 H21       101.9408   30.4503   25.8728 H         1 LDA         0.0265
     38 H22       100.6349   29.4188   27.5961 H         1 LDA         0.0265
     39 H23        99.4063   30.4458   26.7823 H         1 LDA         0.0265
     40 H24        99.2768   31.7803   28.6390 H         1 LDA         0.0265
     41 H25       101.0285   32.1445   28.4783 H         1 LDA         0.0265
     42 H26       101.1270   31.1525   30.5618 H         1 LDA         0.0265
     43 H27       101.1351   29.6328   29.6040 H         1 LDA         0.0265
     44 H28        98.4193   30.6069   29.7269 H         1 LDA         0.0263
     45 H29        99.0850   30.6124   31.3953 H         1 LDA         0.0263
     46 H30        98.0670   28.4200   30.8417 H         1 LDA         0.0230
     47 H31        99.8378   28.2684   31.1026 H         1 LDA         0.0230
     48 H32        99.1721   28.2630   29.4342 H         1 LDA         0.0230
@<TRIPOS>BOND
     1    1    2 1  
     2    1    3 1  
     3    1    4 1  
     4    1    5 1  
     5    5    6 1  
     6    6    7 1  
     7    7    8 1  
     8    8    9 1  
     9    9   10 1  
    10   10   11 1  
    11   11   12 1  
    12   12   13 1  
    13   13   14 1  
    14   14   15 1  
    15   15   16 1  
    16    2   17 1  
    17    3   18 1  
    18    3   19 1  
    19    3   20 1  
    20    4   21 1  
    21    4   22 1  
    22    4   23 1  
    23    5   24 1  
    24    5   25 1  
    25    6   26 1  
    26    6   27 1  
    27    7   28 1  
    28    7   29 1  
    29    8   30 1  
    30    8   31 1  
    31    9   32 1  
    32    9   33 1  
    33   10   34 1  
    34   10   35 1  
    35   11   36 1  
    36   11   37 1  
    37   12   38 1  
    38   12   39 1  
    39   13   40 1  
    40   13   41 1  
    41   14   42 1  
    42   14   43 1  
    43   15   44 1  
    44   15   45 1  
    45   16   46 1  
    46   16   47 1  
    47   16   48 1  
@<TRIPOS>SUBSTRUCTURE
     1 LDA         1

