### 
### Created by X-TOOL on Mon Sep 10 21:12:52 2018
### 

@<TRIPOS>MOLECULE
1sqi_ligand
   57    59     1     0     0
SMALL
GAST_HUCK


@<TRIPOS>ATOM
      1 O30        45.7410    1.5990    8.0700 O.3       1 869        -0.3207
      2 C31        47.1160    1.8760    8.3900 C.3       1 869         0.0597
      3 C24        44.8060    1.1630    5.7870 C.ar      1 869        -0.0323
      4 C25        44.9830    0.5580    4.5250 C.ar      1 869        -0.0632
      5 C26        46.1780   -0.1590    4.3240 C.ar      1 869        -0.0284
      6 C27        47.1740   -0.2880    5.2560 C.ar      1 869        -0.0632
      7 C28        46.9690    0.3120    6.5100 C.ar      1 869        -0.0323
      8 C29        45.7780    1.0360    6.7610 C.ar      1 869         0.0914
      9 C1         44.9710   -1.3850    2.7410 C.ar      1 869        -0.0175
     10 C2         44.9260   -1.7960    1.3680 C.ar      1 869         0.0388
     11 C3         46.0010   -1.3190    0.5940 C.ar      1 869        -0.0487
     12 C4         47.0630   -0.4980    1.0990 C.ar      1 869        -0.0389
     13 C5         47.0730   -0.0570    2.4270 C.ar      1 869         0.0916
     14 C6         45.9910   -0.5360    3.2610 C.ar      1 869         0.0089
     15 C7         43.9270   -1.8440    3.5890 C.3       1 869        -0.0265
     16 C9         44.7360   -4.1020    0.6560 C.3       1 869         0.1645
     17 C15        43.6300   -4.8120    0.4470 C.2       1 869         0.2429
     18 C18        45.9510   -4.7200    0.7620 C.2       1 869         0.0433
     19 N16        44.1140   -6.0720    0.4150 N.am      1 869        -0.1606
     20 N17        45.5960   -5.9980    0.6170 N.2       1 869        -0.2014
     21 O19        42.2850   -4.5980    0.2980 O.2       1 869        -0.3889
     22 C8         44.1030   -2.9680    0.6160 C.2       1 869         0.1628
     23 O10        42.8230   -2.6630    0.4160 O.2       1 869        -0.3753
     24 S11        48.3160    0.7470    2.8370 S.o2      1 869        -0.0057
     25 O13        49.2610    0.2880    2.2240 O.2       1 869        -0.1694
     26 O12        48.6460    0.6080    4.1630 O.2       1 869        -0.1694
     27 C14        48.4050    1.9280    2.6670 C.3       1 869         0.0598
     28 C20        43.6240   -7.5700    0.4260 C.3       1 869         0.0817
     29 C21        43.3960   -7.8750    1.9170 C.3       1 869        -0.0328
     30 C22        42.4490   -7.8120   -0.4330 C.3       1 869        -0.0328
     31 C23        44.6530   -8.6610    0.0180 C.3       1 869        -0.0328
     32 H1         47.1766    2.3175    9.3957 H         1 869         0.0578
     33 H2         47.5287    2.5819    7.6542 H         1 869         0.0578
     34 H3         47.6940    0.9404    8.3649 H         1 869         0.0578
     35 H4         43.9049    1.7292    5.9933 H         1 869         0.0545
     36 H5         44.2337    0.6412    3.7461 H         1 869         0.0590
     37 H6         48.0851   -0.8320    5.0345 H         1 869         0.0590
     38 H7         47.7218    0.2208    7.2846 H         1 869         0.0545
     39 H8         46.0278   -1.5908   -0.4550 H         1 869         0.0642
     40 H9         47.8742   -0.2134    0.4387 H         1 869         0.0589
     41 H10        43.2408   -2.4823    3.0131 H         1 869         0.0409
     42 H11        43.3751   -0.9815    3.9909 H         1 869         0.0409
     43 H12        44.3570   -2.4235    4.4192 H         1 869         0.0409
     44 H13        44.7033   -4.1146    1.7554 H         1 869         0.0936
     45 H14        46.9378   -4.2877    0.9211 H         1 869         0.0813
     46 H15        49.3792    2.2794    3.0378 H         1 869         0.0468
     47 H16        47.5987    2.4389    3.2136 H         1 869         0.0468
     48 H17        48.3191    2.1514    1.5934 H         1 869         0.0468
     49 H18        43.0476   -8.9122    2.0300 H         1 869         0.0260
     50 H19        42.6377   -7.1876    2.3201 H         1 869         0.0260
     51 H20        44.3396   -7.7433    2.4667 H         1 869         0.0260
     52 H21        42.1651   -8.8732   -0.3755 H         1 869         0.0260
     53 H22        42.6961   -7.5544   -1.4735 H         1 869         0.0260
     54 H23        41.6097   -7.1889   -0.0904 H         1 869         0.0260
     55 H24        44.1775   -9.6515    0.0708 H         1 869         0.0260
     56 H25        45.5121   -8.6297    0.7042 H         1 869         0.0260
     57 H26        44.9976   -8.4740   -1.0097 H         1 869         0.0260
@<TRIPOS>BOND
     1    1    2 1  
     2    8    1 1  
     3    4    3 ar 
     4    3    8 ar 
     5    5    4 ar 
     6    5    6 ar 
     7   14    5 1  
     8    6    7 ar 
     9    7    8 ar 
    10   10    9 ar 
    11    9   14 ar 
    12    9   15 1  
    13   10   11 ar 
    14   22   10 1  
    15   11   12 ar 
    16   12   13 ar 
    17   14   13 ar 
    18   13   24 1  
    19   16   17 1  
    20   16   18 1  
    21   16   22 1  
    22   17   19 am 
    23   17   21 2  
    24   18   20 2  
    25   19   20 1  
    26   19   28 1  
    27   22   23 2  
    28   24   25 2  
    29   24   26 2  
    30   24   27 1  
    31   28   29 1  
    32   28   30 1  
    33   28   31 1  
    34    2   32 1  
    35    2   33 1  
    36    2   34 1  
    37    3   35 1  
    38    4   36 1  
    39    6   37 1  
    40    7   38 1  
    41   11   39 1  
    42   12   40 1  
    43   15   41 1  
    44   15   42 1  
    45   15   43 1  
    46   16   44 1  
    47   18   45 1  
    48   27   46 1  
    49   27   47 1  
    50   27   48 1  
    51   29   49 1  
    52   29   50 1  
    53   29   51 1  
    54   30   52 1  
    55   30   53 1  
    56   30   54 1  
    57   31   55 1  
    58   31   56 1  
    59   31   57 1  
@<TRIPOS>SUBSTRUCTURE
     1 869         1

