### 
### Created by X-TOOL on Mon Sep 10 21:12:51 2018
### 

@<TRIPOS>MOLECULE
1sqn_ligand
   50    53     1     0     0
SMALL
GAST_HUCK


@<TRIPOS>ATOM
      1 O22        -4.1220   -1.1470   30.7680 O.2       1 NDR        -0.3916
      2 C21        -3.7310   -0.3340   29.9590 C.2       1 NDR         0.1052
      3 C20        -4.4900    0.9880   29.7420 C.3       1 NDR         0.0213
      4 C19        -2.5860   -0.6780   29.1600 C.3       1 NDR         0.0242
      5 C17        -2.1910    0.2160   28.1060 C.3       1 NDR        -0.0220
      6 C15        -0.8560   -0.1210   27.4590 C.3       1 NDR        -0.0476
      7 C14        -2.9580    1.3330   27.6770 C.3       1 NDR        -0.0309
      8 C18        -4.3850    1.2920   28.2630 C.3       1 NDR        -0.0336
      9 C8         -2.8080    1.6270   26.2540 C.3       1 NDR        -0.0345
     10 C3         -1.6160    1.3810   25.5500 C.3       1 NDR        -0.0345
     11 C9         -0.9620    0.0700   25.9880 C.3       1 NDR        -0.0493
     12 C13        -3.6500    2.8190   25.7550 C.3       1 NDR        -0.0491
     13 C6         -3.4930    3.0750   24.1940 C.3       1 NDR        -0.0436
     14 C2         -2.1050    2.9940   23.6570 C.3       1 NDR         0.0111
     15 C1         -1.4440    1.7140   24.1630 C.3       1 NDR        -0.0289
     16 C7         -1.4140    4.2380   24.2320 C.3       1 NDR        -0.0558
     17 C5         -1.8860    2.9150   22.1190 C.3       1 NDR         0.1317
     18 O12        -1.9890    4.1550   21.4200 O.3       1 NDR        -0.3760
     19 C10        -0.4500    2.3470   22.0170 C.3       1 NDR        -0.0118
     20 C4         -0.2250    1.5110   23.2800 C.3       1 NDR        -0.0458
     21 C11        -2.8680    2.0190   21.4830 C.1       1 NDR        -0.0704
     22 C16        -3.7620    1.2630   20.9700 C.1       1 NDR        -0.1163
     23 H1         -4.0293    1.7944   30.3315 H         1 NDR         0.0494
     24 H2         -5.5443    0.8759   30.0351 H         1 NDR         0.0494
     25 H3         -2.7946   -1.6537   28.6969 H         1 NDR         0.0497
     26 H4         -1.7295   -0.7722   29.8437 H         1 NDR         0.0497
     27 H5         -2.7236   -0.4058   27.3714 H         1 NDR         0.0328
     28 H6         -0.5960   -1.1676   27.6760 H         1 NDR         0.0270
     29 H7         -0.0752    0.5417   27.8604 H         1 NDR         0.0270
     30 H8         -2.4939    2.2001   28.1697 H         1 NDR         0.0309
     31 H9         -4.8482    2.2743   28.0883 H         1 NDR         0.0293
     32 H10        -4.9488    0.5190   27.7203 H         1 NDR         0.0293
     33 H11        -3.4038    0.7944   25.8519 H         1 NDR         0.0306
     34 H12        -0.9546    2.1316   26.0073 H         1 NDR         0.0306
     35 H13        -1.5556   -0.7605   25.5783 H         1 NDR         0.0268
     36 H14         0.0534    0.0381   25.5661 H         1 NDR         0.0268
     37 H15        -3.3313    3.7239   26.2931 H         1 NDR         0.0268
     38 H16        -4.7090    2.6167   25.9729 H         1 NDR         0.0268
     39 H17        -3.8800    4.0815   23.9770 H         1 NDR         0.0272
     40 H18        -4.1024    2.3263   23.6668 H         1 NDR         0.0272
     41 H19        -2.1035    0.9380   23.7472 H         1 NDR         0.0310
     42 H20        -1.5781    4.2791   25.3189 H         1 NDR         0.0236
     43 H21        -1.8339    5.1403   23.7634 H         1 NDR         0.0236
     44 H22        -0.3347    4.1862   24.0259 H         1 NDR         0.0236
     45 H23        -2.8569    4.5192   21.5496 H         1 NDR         0.2114
     46 H24         0.2811    3.1674   21.9687 H         1 NDR         0.0303
     47 H25        -0.3531    1.7162   21.1211 H         1 NDR         0.0303
     48 H26        -0.1206    0.4480   23.0170 H         1 NDR         0.0269
     49 H27         0.6817    1.8503   23.8022 H         1 NDR         0.0269
     50 H28        -4.5006    0.6384   20.5462 H         1 NDR         0.1229
@<TRIPOS>BOND
     1    1    2 2  
     2    2    3 1  
     3    2    4 1  
     4    3    8 1  
     5    4    5 1  
     6    5    6 1  
     7    5    7 1  
     8    6   11 1  
     9    7    8 1  
    10    7    9 1  
    11    9   10 1  
    12    9   12 1  
    13   10   11 1  
    14   10   15 1  
    15   12   13 1  
    16   13   14 1  
    17   14   15 1  
    18   14   16 1  
    19   14   17 1  
    20   15   20 1  
    21   17   18 1  
    22   17   19 1  
    23   17   21 1  
    24   19   20 1  
    25   21   22 3  
    26    3   23 1  
    27    3   24 1  
    28    4   25 1  
    29    4   26 1  
    30    5   27 1  
    31    6   28 1  
    32    6   29 1  
    33    7   30 1  
    34    8   31 1  
    35    8   32 1  
    36    9   33 1  
    37   10   34 1  
    38   11   35 1  
    39   11   36 1  
    40   12   37 1  
    41   12   38 1  
    42   13   39 1  
    43   13   40 1  
    44   15   41 1  
    45   16   42 1  
    46   16   43 1  
    47   16   44 1  
    48   18   45 1  
    49   19   46 1  
    50   19   47 1  
    51   20   48 1  
    52   20   49 1  
    53   22   50 1  
@<TRIPOS>SUBSTRUCTURE
     1 NDR         1

