### 
### Created by X-TOOL on Mon Sep 10 21:12:52 2018
### 

@<TRIPOS>MOLECULE
1sqo_ligand
   34    36     1     0     0
SMALL
GAST_HUCK


@<TRIPOS>ATOM
      1 C1         22.8480   15.6040   33.4860 C.ar      1 UI2        -0.0756
      2 C2         21.5630   15.6150   32.9250 C.ar      1 UI2        -0.0693
      3 C3         20.6830   16.7430   33.1310 C.ar      1 UI2        -0.0271
      4 C4         21.1830   17.8310   33.9200 C.ar      1 UI2         0.0126
      5 C5         22.4840   17.8600   34.4720 C.ar      1 UI2         0.0785
      6 C6         23.3140   16.7200   34.2580 C.ar      1 UI2        -0.0394
      7 C10        19.3950   16.7020   32.5920 C.ar      1 UI2        -0.0590
      8 C11        18.5190   17.7660   32.9440 C.ar      1 UI2        -0.0591
      9 C12        18.9390   18.8490   33.7780 C.ar      1 UI2         0.0240
     10 C13        20.2510   18.9260   34.2320 C.ar      1 UI2        -0.0486
     11 N17        23.0230   18.9790   35.1990 N.pl3     1 UI2        -0.2368
     12 C18        23.5730   18.9350   36.4770 C.ar      1 UI2         0.2163
     13 N19        23.5420   17.8270   37.2840 N.ar      1 UI2        -0.2483
     14 C20        24.0180   17.7620   38.5550 C.ar      1 UI2         0.0160
     15 C21        24.6230   18.9260   39.1790 C.ar      1 UI2        -0.0217
     16 C22        24.5650   20.0600   38.2700 C.ar      1 UI2         0.0160
     17 N23        24.1230   20.0870   37.0400 N.ar      1 UI2        -0.2483
     18 C28        18.1090   19.8910   34.1900 C.cat     1 UI2         0.2338
     19 N29        16.8030   19.7790   34.1600 N.pl3     1 UI2        -0.2725
     20 N30        18.5430   21.0900   34.6510 N.pl3     1 UI2        -0.2725
     21 H1         23.4938   14.7465   33.3354 H         1 UI2         0.0579
     22 H2         21.2272   14.7716   32.3326 H         1 UI2         0.0486
     23 H3         24.3103   16.6964   34.6844 H         1 UI2         0.0491
     24 H4         19.0784   15.8983   31.9372 H         1 UI2         0.0597
     25 H5         17.5021   17.7555   32.5686 H         1 UI2         0.0613
     26 H6         20.5830   19.7819   34.8085 H         1 UI2         0.0629
     27 H7         22.9997   19.8962   34.7309 H         1 UI2         0.2213
     28 H8         23.9456   16.8328   39.1086 H         1 UI2         0.0903
     29 H9         25.0535   18.9464   40.1737 H         1 UI2         0.0673
     30 H10        24.9347   21.0008   38.6616 H         1 UI2         0.0903
     31 H11        16.2116   20.5633   34.4698 H         1 UI2         0.3180
     32 H12        16.3684   18.9067   33.8267 H         1 UI2         0.3180
     33 H13        19.5529   21.2822   34.7152 H         1 UI2         0.3180
     34 H14        17.8628   21.8086   34.9370 H         1 UI2         0.3180
@<TRIPOS>BOND
     1    1    2 ar 
     2    1    6 ar 
     3    2    3 ar 
     4    3    4 ar 
     5    3    7 ar 
     6    4    5 ar 
     7    4   10 ar 
     8    5    6 ar 
     9    5   11 1  
    10    7    8 ar 
    11    8    9 ar 
    12    9   10 ar 
    13    9   18 1  
    14   11   12 1  
    15   12   13 ar 
    16   12   17 ar 
    17   13   14 ar 
    18   14   15 ar 
    19   15   16 ar 
    20   16   17 ar 
    21   18   19 ar 
    22   18   20 ar 
    23    1   21 1  
    24    2   22 1  
    25    6   23 1  
    26    7   24 1  
    27    8   25 1  
    28   10   26 1  
    29   11   27 1  
    30   14   28 1  
    31   15   29 1  
    32   16   30 1  
    33   19   31 1  
    34   19   32 1  
    35   20   33 1  
    36   20   34 1  
@<TRIPOS>SUBSTRUCTURE
     1 UI2         1

