### 
### Created by X-TOOL on Mon Sep 10 21:12:53 2018
### 

@<TRIPOS>MOLECULE
1sqp_ligand
   66    67     1     0     0
SMALL
GAST_HUCK


@<TRIPOS>ATOM
      1 O1         66.4770   58.6540  168.1130 O.2       1 MYX        -0.4200
      2 C1         67.2970   59.5610  168.0940 C.2       1 MYX         0.1486
      3 N1         67.0800   60.6070  167.2990 N.am      1 MYX        -0.3114
      4 C2         68.5770   59.5160  168.9290 C.2       1 MYX         0.0077
      5 C3         68.9790   58.5510  169.8500 C.2       1 MYX         0.1024
      6 O2         70.2340   58.6990  170.5960 O.3       1 MYX        -0.3001
      7 C4         71.0910   59.8200  170.5010 C.3       1 MYX         0.0690
      8 C5         68.2020   57.2730  170.1130 C.3       1 MYX         0.0675
      9 C6         67.5670   57.3660  171.5030 C.3       1 MYX        -0.0398
     10 C7         69.1270   56.0670  169.9760 C.3       1 MYX         0.1059
     11 O3         68.6270   54.8540  170.5710 O.3       1 MYX        -0.3630
     12 C8         69.6580   54.0270  171.1430 C.3       1 MYX         0.0402
     13 C9         69.6750   55.9030  168.5610 C.2       1 MYX        -0.0512
     14 C10        69.3830   54.8800  167.7490 C.2       1 MYX        -0.0688
     15 C11        70.1060   54.7350  166.4380 C.2       1 MYX         0.0009
     16 C12        69.8170   53.6910  165.6560 C.2       1 MYX         0.0088
     17 N2         71.0290   55.5970  165.9880 N.2       1 MYX        -0.3173
     18 C13        71.4770   55.1940  164.6790 C.2       1 MYX         0.1049
     19 C14        72.4960   55.8270  163.8630 C.2       1 MYX         0.0579
     20 C15        73.2610   56.8890  164.3330 C.2       1 MYX         0.0304
     21 N3         72.8590   55.3700  162.5920 N.2       1 MYX        -0.3065
     22 C16        73.9370   56.1800  162.0650 C.2       1 MYX         0.1099
     23 C17        74.6260   55.9310  160.7130 C.3       1 MYX         0.0513
     24 C18        73.7770   55.0990  159.7700 C.3       1 MYX        -0.0361
     25 C19        75.0820   57.2190  160.0430 C.2       1 MYX        -0.0661
     26 C20        76.4290   57.4020  159.8280 C.2       1 MYX        -0.0870
     27 C21        76.9030   58.6870  159.1660 C.2       1 MYX        -0.0889
     28 C22        78.2520   58.8640  158.9540 C.2       1 MYX        -0.0837
     29 C23        78.7640   60.1350  158.3020 C.3       1 MYX        -0.0210
     30 C24        79.3620   61.0460  159.3630 C.3       1 MYX        -0.0527
     31 C25        79.8150   59.8170  157.2440 C.3       1 MYX        -0.0527
     32 S1         70.7080   53.7470  164.2160 S.3       1 MYX        -0.0137
     33 S2         74.4640   57.3670  163.2160 S.3       1 MYX         0.0114
     34 H          66.2413   60.6419  166.7196 H         1 MYX         0.1782
     35 H          67.7525   61.3733  167.2694 H         1 MYX         0.1782
     36 H          69.2657   60.3485  168.7847 H         1 MYX         0.0195
     37 H          71.4326   59.9284  169.4716 H         1 MYX         0.0597
     38 H          70.5490   60.7166  170.8017 H         1 MYX         0.0597
     39 H          71.9496   59.6759  171.1568 H         1 MYX         0.0597
     40 H          67.4043   57.1459  169.3812 H         1 MYX         0.0622
     41 H          68.3502   57.4860  172.2515 H         1 MYX         0.0268
     42 H          66.8952   58.2237  171.5375 H         1 MYX         0.0268
     43 H          67.0051   56.4543  171.7061 H         1 MYX         0.0268
     44 H          69.9937   56.2992  170.5949 H         1 MYX         0.0815
     45 H          70.3664   53.7417  170.3653 H         1 MYX         0.0526
     46 H          70.1775   54.5836  171.9230 H         1 MYX         0.0526
     47 H          69.2077   53.1319  171.5722 H         1 MYX         0.0526
     48 H          70.3506   56.6718  168.1860 H         1 MYX         0.0670
     49 H          68.6231   54.1536  168.0370 H         1 MYX         0.0412
     50 H          69.1031   52.9076  165.9105 H         1 MYX         0.0688
     51 H          73.1108   57.3628  165.3031 H         1 MYX         0.0828
     52 H          75.5194   55.3505  160.9434 H         1 MYX         0.0720
     53 H          73.5730   54.1302  160.2259 H         1 MYX         0.0288
     54 H          72.8372   55.6163  159.5772 H         1 MYX         0.0288
     55 H          74.3131   54.9549  158.8319 H         1 MYX         0.0288
     56 H          74.3599   57.9776  159.7410 H         1 MYX         0.0626
     57 H          77.1457   56.6374  160.1277 H         1 MYX         0.0416
     58 H          76.1883   59.4531  158.8652 H         1 MYX         0.0404
     59 H          78.9552   58.0877  159.2558 H         1 MYX         0.0616
     60 H          77.9277   60.6370  157.8155 H         1 MYX         0.0469
     61 H          78.5968   61.2973  160.0975 H         1 MYX         0.0258
     62 H          80.1873   60.5333  159.8571 H         1 MYX         0.0258
     63 H          79.7289   61.9580  158.8921 H         1 MYX         0.0258
     64 H          80.6530   59.2990  157.7104 H         1 MYX         0.0258
     65 H          79.3748   59.1808  156.4762 H         1 MYX         0.0258
     66 H          80.1658   60.7447  156.7918 H         1 MYX         0.0258
@<TRIPOS>BOND
     1    1    2 2  
     2    2    3 am 
     3    2    4 1  
     4    4    5 2  
     5    5    6 1  
     6    5    8 1  
     7    6    7 1  
     8    8    9 1  
     9    8   10 1  
    10   10   11 1  
    11   10   13 1  
    12   11   12 1  
    13   13   14 2  
    14   14   15 1  
    15   15   16 2  
    16   15   17 1  
    17   16   32 1  
    18   17   18 2  
    19   18   19 1  
    20   18   32 1  
    21   19   20 2  
    22   19   21 1  
    23   20   33 1  
    24   21   22 2  
    25   22   23 1  
    26   22   33 1  
    27   23   24 1  
    28   23   25 1  
    29   25   26 2  
    30   26   27 1  
    31   27   28 2  
    32   28   29 1  
    33   29   30 1  
    34   29   31 1  
    35    3   34 1  
    36    3   35 1  
    37    4   36 1  
    38    7   37 1  
    39    7   38 1  
    40    7   39 1  
    41    8   40 1  
    42    9   41 1  
    43    9   42 1  
    44    9   43 1  
    45   10   44 1  
    46   12   45 1  
    47   12   46 1  
    48   12   47 1  
    49   13   48 1  
    50   14   49 1  
    51   16   50 1  
    52   20   51 1  
    53   23   52 1  
    54   24   53 1  
    55   24   54 1  
    56   24   55 1  
    57   25   56 1  
    58   26   57 1  
    59   27   58 1  
    60   28   59 1  
    61   29   60 1  
    62   30   61 1  
    63   30   62 1  
    64   30   63 1  
    65   31   64 1  
    66   31   65 1  
    67   31   66 1  
@<TRIPOS>SUBSTRUCTURE
     1 MYX         1

