### 
### Created by X-TOOL on Mon Sep 10 21:12:53 2018
### 

@<TRIPOS>MOLECULE
1sqq_ligand
   40    41     1     0     0
SMALL
GAST_HUCK


@<TRIPOS>ATOM
      1 H          67.4219   61.5162  167.0595 H         1 OST         0.0574
      2 H          66.2335   61.1045  168.3420 H         1 OST         0.0574
      3 H          66.4720   59.9956  166.9490 H         1 OST         0.0574
      4 H          69.8472   60.0846  169.5769 H         1 OST         0.1350
      5 H          72.1045   59.7591  172.2286 H         1 OST         0.0606
      6 H          70.8883   60.9370  171.6288 H         1 OST         0.0606
      7 H          72.0376   60.1697  170.4812 H         1 OST         0.0606
      8 H          67.3635   57.6793  172.3182 H         1 OST         0.0556
      9 H          69.5366   53.6128  170.3260 H         1 OST         0.0605
     10 H          68.2409   53.4319  172.4562 H         1 OST         0.0562
     11 H          67.2516   55.4839  173.5017 H         1 OST         0.0602
     12 H          70.5009   56.5832  168.5551 H         1 OST         0.0615
     13 H          68.6883   54.1982  167.8846 H         1 OST         0.0580
     14 H          70.8405   56.9185  166.4390 H         1 OST         0.0613
     15 H          72.2150   56.7003  164.3397 H         1 OST         0.0614
     16 H          69.9940   52.6434  166.3437 H         1 OST         0.0613
     17 H          71.3195   52.4303  164.2230 H         1 OST         0.0614
     18 H          72.4772   54.4441  163.2447 H         1 OST         0.0608
     19 C5         66.9710   60.6950  167.6360 C.3       1 OST         0.0639
     20 O1         68.0210   59.9850  168.3810 O.3       1 OST        -0.2862
     21 C1         67.6520   58.9220  169.1640 C.2       1 OST         0.2415
     22 O3         66.4620   58.6140  169.2520 O.2       1 OST        -0.3760
     23 C2         68.7090   58.3480  169.9920 C.2       1 OST         0.0868
     24 C3         69.7140   59.2050  170.2050 C.2       1 OST         0.1018
     25 O2         70.5170   58.9540  171.1770 O.3       1 OST        -0.2986
     26 C4         71.4390   60.0150  171.3910 C.3       1 OST         0.0713
     27 C6         68.5800   56.9750  170.6280 C.ar      1 OST        -0.0186
     28 C11        67.8510   56.8160  171.8800 C.ar      1 OST        -0.0628
     29 C7         69.0740   55.7330  170.0120 C.ar      1 OST        -0.0262
     30 C8         69.0330   54.4840  170.7290 C.ar      1 OST        -0.0610
     31 C9         68.3360   54.3910  171.9600 C.ar      1 OST        -0.0677
     32 C10        67.7600   55.5550  172.5470 C.ar      1 OST        -0.0685
     33 C12        69.7730   55.7930  168.7330 C.2       1 OST        -0.0591
     34 C13        69.5290   54.8800  167.7650 C.2       1 OST        -0.0586
     35 C14        70.3550   54.7780  166.5650 C.ar      1 OST        -0.0289
     36 C15        70.9670   55.9480  165.9730 C.ar      1 OST        -0.0564
     37 C16        71.7400   55.8270  164.7720 C.ar      1 OST        -0.0625
     38 C19        70.4770   53.5160  165.9190 C.ar      1 OST        -0.0564
     39 C18        71.2340   53.3940  164.7120 C.ar      1 OST        -0.0625
     40 C17        71.8820   54.5450  164.1450 C.ar      1 OST        -0.0629
@<TRIPOS>BOND
     1   19    1 1  
     2   19    2 1  
     3   19    3 1  
     4   24    4 1  
     5   26    5 1  
     6   26    6 1  
     7   26    7 1  
     8   28    8 1  
     9   30    9 1  
    10   31   10 1  
    11   32   11 1  
    12   33   12 1  
    13   34   13 1  
    14   36   14 1  
    15   37   15 1  
    16   38   16 1  
    17   39   17 1  
    18   40   18 1  
    19   20   19 1  
    20   21   20 1  
    21   21   22 2  
    22   23   21 1  
    23   23   24 2  
    24   27   23 1  
    25   24   25 1  
    26   25   26 1  
    27   27   28 ar 
    28   29   27 ar 
    29   28   32 ar 
    30   29   30 ar 
    31   33   29 1  
    32   30   31 ar 
    33   31   32 ar 
    34   34   33 2  
    35   35   34 1  
    36   35   36 ar 
    37   38   35 ar 
    38   36   37 ar 
    39   37   40 ar 
    40   38   39 ar 
    41   39   40 ar 
@<TRIPOS>SUBSTRUCTURE
     1 OST         1

