### 
### Created by X-TOOL on Mon Sep 10 21:12:52 2018
### 

@<TRIPOS>MOLECULE
1sqt_ligand
   46    48     1     0     0
SMALL
GAST_HUCK


@<TRIPOS>ATOM
      1 C1         22.8630   15.2860   32.9690 C.ar      1 UI3        -0.0366
      2 C2         21.6050   15.5170   32.3500 C.ar      1 UI3        -0.0653
      3 C3         20.8180   16.6100   32.7350 C.ar      1 UI3        -0.0310
      4 C4         21.2960   17.5270   33.7420 C.ar      1 UI3        -0.0216
      5 C5         22.5690   17.3060   34.3480 C.ar      1 UI3         0.0034
      6 C6         23.3240   16.1860   33.9870 C.ar      1 UI3         0.0928
      7 C9         19.5460   16.7560   32.1380 C.ar      1 UI3        -0.0613
      8 C10        18.7320   17.7980   32.5450 C.ar      1 UI3        -0.0613
      9 C11        19.1780   18.6980   33.5390 C.ar      1 UI3         0.0211
     10 C12        20.4510   18.5740   34.1440 C.ar      1 UI3        -0.0554
     11 C16        18.3140   19.7900   33.9540 C.cat     1 UI3         0.2337
     12 N17        16.9780   19.7470   33.6840 N.pl3     1 UI3        -0.2724
     13 N18        18.7730   20.8310   34.5960 N.pl3     1 UI3        -0.2724
     14 O19        24.5530   16.0550   34.7060 O.3       1 UI3        -0.3264
     15 C20        25.5590   15.1380   34.2870 C.3       1 UI3         0.0572
     16 C24        23.2310   18.2790   35.2620 C.3       1 UI3         0.0528
     17 C25        23.8430   17.9820   36.4130 C.3       1 UI3         0.0834
     18 N26        23.9820   19.2160   37.2050 N.am      1 UI3        -0.2034
     19 N27        24.1440   20.1530   36.0980 N.4       1 UI3         0.3616
     20 C28        23.3510   19.7130   35.0840 C.3       1 UI3         0.0004
     21 S34        24.9760   19.1860   38.6680 S.o2      1 UI3         0.0684
     22 O35        24.8390   20.5130   39.2400 O.2       1 UI3        -0.1519
     23 O36        26.2700   18.8100   38.1540 O.2       1 UI3        -0.1519
     24 C37        24.4350   17.8920   39.7690 C.3       1 UI3         0.0776
     25 H1         23.4693   14.4370   32.6746 H         1 UI3         0.0563
     26 H2         21.2527   14.8444   31.5763 H         1 UI3         0.0539
     27 H3         19.2133   16.0631   31.3737 H         1 UI3         0.0602
     28 H4         17.7512   17.9242   32.1010 H         1 UI3         0.0585
     29 H5         20.7690   19.2763   34.9060 H         1 UI3         0.0596
     30 H6         16.3677   20.5224   33.9793 H         1 UI3         0.3181
     31 H7         16.5792   18.9391   33.1848 H         1 UI3         0.3181
     32 H8         19.7767   20.8981   34.8175 H         1 UI3         0.3181
     33 H9         18.1312   21.5847   34.8807 H         1 UI3         0.3181
     34 H10        26.4164   15.1954   34.9737 H         1 UI3         0.0574
     35 H11        25.8871   15.3937   33.2687 H         1 UI3         0.0574
     36 H12        25.1505   14.1167   34.2951 H         1 UI3         0.0574
     37 H13        22.2614   18.3951   35.7682 H         1 UI3         0.0509
     38 H14        24.8379   17.5611   36.2056 H         1 UI3         0.0553
     39 H15        23.2439   17.2485   36.9725 H         1 UI3         0.0553
     40 H16        25.1068   20.1737   35.8002 H         1 UI3         0.2250
     41 H17        23.8604   21.0774   36.3828 H         1 UI3         0.2250
     42 H18        22.3609   20.1890   35.1395 H         1 UI3         0.0844
     43 H19        23.8130   19.9399   34.1119 H         1 UI3         0.0844
     44 H20        25.0650   17.8906   40.6707 H         1 UI3         0.0484
     45 H21        24.5191   16.9197   39.2615 H         1 UI3         0.0484
     46 H22        23.3872   18.0674   40.0541 H         1 UI3         0.0484
@<TRIPOS>BOND
     1    1    2 ar 
     2    1    6 ar 
     3    2    3 ar 
     4    3    4 ar 
     5    3    7 ar 
     6    4    5 ar 
     7    4   10 ar 
     8    5    6 ar 
     9    5   16 1  
    10    6   14 1  
    11    7    8 ar 
    12    8    9 ar 
    13    9   10 ar 
    14    9   11 1  
    15   11   12 ar 
    16   11   13 ar 
    17   14   15 1  
    18   16   17 1  
    19   16   20 1  
    20   17   18 1  
    21   18   19 1  
    22   18   21 am 
    23   19   20 1  
    24   21   22 2  
    25   21   23 2  
    26   21   24 1  
    27    1   25 1  
    28    2   26 1  
    29    7   27 1  
    30    8   28 1  
    31   10   29 1  
    32   12   30 1  
    33   12   31 1  
    34   13   32 1  
    35   13   33 1  
    36   15   34 1  
    37   15   35 1  
    38   15   36 1  
    39   16   37 1  
    40   17   38 1  
    41   17   39 1  
    42   19   40 1  
    43   19   41 1  
    44   20   42 1  
    45   20   43 1  
    46   24   44 1  
    47   24   45 1  
    48   24   46 1  
@<TRIPOS>SUBSTRUCTURE
     1 UI3         1

