### 
### Created by X-TOOL on Mon Sep 10 21:12:51 2018
### 

@<TRIPOS>MOLECULE
1sr7_ligand
   67    71     1     0     0
SMALL
GAST_HUCK


@<TRIPOS>ATOM
      1 O35        -5.1290  -11.2270   30.4090 O.2       1 MOF        -0.3440
      2 C34        -4.6810  -10.3470   29.7000 C.2       1 MOF         0.1764
      3 C33        -5.6140   -9.3250   29.1610 C.3       1 MOF         0.0244
      4 C32        -3.2830  -10.3920   29.2260 C.2       1 MOF         0.0477
      5 C29        -2.7470   -9.5110   28.2950 C.2       1 MOF        -0.0399
      6 C26        -1.2690   -9.6320   27.8690 C.3       1 MOF        -0.0168
      7 C24        -3.5700   -8.3370   27.7820 C.3       1 MOF        -0.0193
      8 C30        -5.0320   -8.3430   28.2080 C.3       1 MOF        -0.0597
      9 C31        -2.9750   -7.0520   28.3980 C.3       1 MOF        -0.0876
     10 C19        -3.4520   -8.4040   26.2290 C.3       1 MOF         0.0513
     11 CL25       -4.1590  -10.0120   25.6640 Cl        1 MOF        -0.1272
     12 C15        -4.3330   -7.3810   25.4680 C.3       1 MOF         0.0660
     13 O21        -4.3130   -6.0400   25.8700 O.3       1 MOF        -0.3911
     14 C14        -1.9720   -8.3700   25.7530 C.3       1 MOF        -0.0233
     15 C20        -1.2470   -9.5830   26.3190 C.3       1 MOF        -0.0380
     16 C6         -1.9260   -8.3100   24.2330 C.3       1 MOF        -0.0297
     17 C9         -0.6100   -8.4170   23.4000 C.3       1 MOF        -0.0450
     18 C3         -1.0360   -8.0810   22.0220 C.3       1 MOF        -0.0044
     19 C10        -0.3630   -9.0410   21.0370 C.3       1 MOF        -0.0605
     20 C2         -2.8540   -7.3330   23.4930 C.3       1 MOF         0.0122
     21 C7         -4.3280   -7.4860   23.9950 C.3       1 MOF        -0.0186
     22 C8         -2.3760   -5.8920   23.8480 C.3       1 MOF        -0.0573
     23 C1         -2.5090   -7.6580   22.0240 C.3       1 MOF         0.1671
     24 C5         -2.9930   -6.6500   21.1020 C.2       1 MOF         0.1781
     25 O13        -2.1380   -6.0030   20.4660 O.2       1 MOF        -0.3280
     26 C12        -4.4140   -6.3560   21.0480 C.3       1 MOF         0.1005
     27 CL18       -4.7630   -5.4580   19.6100 Cl        1 MOF        -0.1028
     28 O4         -3.2470   -8.9290   21.8580 O.3       1 MOF        -0.2673
     29 C11        -3.4640   -9.3390   20.5610 C.2       1 MOF         0.2855
     30 O17        -3.2350   -8.6950   19.5440 O.2       1 MOF        -0.3630
     31 C16        -3.8600  -10.7480   20.6120 C.2       1 MOF         0.1959
     32 C22        -3.9550  -11.4150   21.7380 C.2       1 MOF        -0.0420
     33 C27        -4.3420  -12.7320   21.4170 C.2       1 MOF        -0.0550
     34 C28        -4.4070  -12.7950   20.0210 C.2       1 MOF         0.0871
     35 O23        -4.1130  -11.5510   19.4790 O.3       1 MOF        -0.2491
     36 H1         -6.0250   -8.7632   30.0127 H         1 MOF         0.0483
     37 H2         -6.4280   -9.8534   28.6432 H         1 MOF         0.0483
     38 H3         -2.6313  -11.1643   29.6318 H         1 MOF         0.1318
     39 H4         -0.8487  -10.5845   28.2242 H         1 MOF         0.0450
     40 H5         -0.6854   -8.7966   28.2831 H         1 MOF         0.0450
     41 H6         -5.2188   -7.3525   28.6485 H         1 MOF         0.0173
     42 H7         -5.6131   -8.4470   27.2798 H         1 MOF         0.0173
     43 H8         -3.0960   -7.0793   29.4910 H         1 MOF         0.0112
     44 H9         -3.4997   -6.1742   27.9929 H         1 MOF         0.0112
     45 H10        -1.9055   -6.9872   28.1491 H         1 MOF         0.0112
     46 H11        -5.3471   -7.7054   25.7442 H         1 MOF         0.0600
     47 H12        -4.8974   -5.5358   25.3161 H         1 MOF         0.2098
     48 H13        -1.4897   -7.4633   26.1471 H         1 MOF         0.0313
     49 H14        -1.7303  -10.4924   25.9324 H         1 MOF         0.0293
     50 H15        -0.1997   -9.5536   25.9838 H         1 MOF         0.0293
     51 H16        -2.3943   -9.2805   24.0119 H         1 MOF         0.0308
     52 H17        -0.1991   -9.4364   23.4455 H         1 MOF         0.0270
     53 H18         0.1427   -7.7017   23.7628 H         1 MOF         0.0270
     54 H19        -0.5321   -7.1313   21.7892 H         1 MOF         0.0314
     55 H20         0.7013   -9.1445   21.2950 H         1 MOF         0.0232
     56 H21        -0.4556   -8.6430   20.0157 H         1 MOF         0.0232
     57 H22        -0.8511  -10.0252   21.0927 H         1 MOF         0.0232
     58 H23        -4.9517   -6.6891   23.5638 H         1 MOF         0.0295
     59 H24        -4.7238   -8.4663   23.6912 H         1 MOF         0.0295
     60 H25        -2.6264   -5.6704   24.8960 H         1 MOF         0.0234
     61 H26        -2.8773   -5.1669   23.1901 H         1 MOF         0.0234
     62 H27        -1.2871   -5.8221   23.7085 H         1 MOF         0.0234
     63 H28        -4.6995   -5.7626   21.9291 H         1 MOF         0.0655
     64 H29        -4.9832   -7.2973   21.0397 H         1 MOF         0.0655
     65 H30        -3.7691  -11.0232   22.7369 H         1 MOF         0.0439
     66 H31        -4.5493  -13.5401   22.1170 H         1 MOF         0.0366
     67 H32        -4.6516  -13.6865   19.4454 H         1 MOF         0.1043
@<TRIPOS>BOND
     1    1    2 2  
     2    2    3 1  
     3    2    4 1  
     4    3    8 1  
     5    4    5 2  
     6    5    6 1  
     7    5    7 1  
     8    6   15 1  
     9    7    8 1  
    10    7    9 1  
    11    7   10 1  
    12   10   11 1  
    13   10   12 1  
    14   10   14 1  
    15   12   13 1  
    16   12   21 1  
    17   14   15 1  
    18   14   16 1  
    19   16   17 1  
    20   16   20 1  
    21   17   18 1  
    22   18   19 1  
    23   18   23 1  
    24   20   21 1  
    25   20   22 1  
    26   20   23 1  
    27   23   24 1  
    28   23   28 1  
    29   24   25 2  
    30   24   26 1  
    31   26   27 1  
    32   28   29 1  
    33   29   30 2  
    34   29   31 1  
    35   31   32 2  
    36   31   35 1  
    37   32   33 1  
    38   33   34 2  
    39   34   35 1  
    40    3   36 1  
    41    3   37 1  
    42    4   38 1  
    43    6   39 1  
    44    6   40 1  
    45    8   41 1  
    46    8   42 1  
    47    9   43 1  
    48    9   44 1  
    49    9   45 1  
    50   12   46 1  
    51   13   47 1  
    52   14   48 1  
    53   15   49 1  
    54   15   50 1  
    55   16   51 1  
    56   17   52 1  
    57   17   53 1  
    58   18   54 1  
    59   19   55 1  
    60   19   56 1  
    61   19   57 1  
    62   21   58 1  
    63   21   59 1  
    64   22   60 1  
    65   22   61 1  
    66   22   62 1  
    67   26   63 1  
    68   26   64 1  
    69   32   65 1  
    70   33   66 1  
    71   34   67 1  
@<TRIPOS>SUBSTRUCTURE
     1 MOF         1

