### 
### Created by X-TOOL on Mon Sep 10 21:12:45 2018
### 

@<TRIPOS>MOLECULE
1sre_ligand
   27    28     1     0     0
SMALL
GAST_HUCK


@<TRIPOS>ATOM
      1 C1         33.4080   12.2270   -5.3890 C.ar      1 HAB         0.0876
      2 C2         34.4880   11.9540   -4.6170 C.ar      1 HAB         0.0372
      3 C3         34.4630   10.8210   -3.7710 C.ar      1 HAB        -0.0426
      4 C4         33.3100   10.0230   -3.7440 C.ar      1 HAB        -0.0551
      5 C5         32.1880   10.3440   -4.5100 C.ar      1 HAB        -0.0541
      6 C6         32.2190   11.4550   -5.3560 C.ar      1 HAB        -0.0307
      7 C1'        31.7790   14.3940   -7.8400 C.ar      1 HAB         0.0708
      8 C2'        32.6310   15.4890   -8.0010 C.ar      1 HAB        -0.0384
      9 C3'        32.2270   16.5010   -8.8540 C.ar      1 HAB        -0.0242
     10 C4'        31.0110   16.4270   -9.5220 C.ar      1 HAB         0.0957
     11 C5'        30.1510   15.3400   -9.3390 C.ar      1 HAB        -0.0242
     12 C6'        30.5370   14.3020   -8.4820 C.ar      1 HAB        -0.0384
     13 C          35.7370   12.8300   -4.6450 C.2       1 HAB         0.0663
     14 N1         33.3380   13.4220   -6.2980 N.2       1 HAB        -0.1790
     15 N1'        32.1900   13.3320   -6.9060 N.2       1 HAB        -0.1814
     16 O          36.5450   12.6660   -3.7250 O.co2     1 HAB        -0.5601
     17 OXT        36.0000   13.8300   -5.6110 O.co2     1 HAB        -0.5601
     18 O4'        30.6080   17.4910  -10.3380 O.3       1 HAB        -0.3278
     19 H1         35.3196   10.5738   -3.1545 H         1 HAB         0.0661
     20 H2         33.2897    9.1397   -3.1160 H         1 HAB         0.0650
     21 H3         31.2950    9.7326   -4.4484 H         1 HAB         0.0647
     22 H4         31.3630   11.7182   -5.9668 H         1 HAB         0.0671
     23 H5         33.5773   15.5443   -7.4752 H         1 HAB         0.0656
     24 H6         32.8676   17.3627   -9.0029 H         1 HAB         0.0566
     25 H7         29.1978   15.3012   -9.8538 H         1 HAB         0.0566
     26 H8         29.8902   13.4475   -8.3191 H         1 HAB         0.0656
     27 H9         31.2945   18.1472  -10.3629 H         1 HAB         0.2514
@<TRIPOS>BOND
     1    1    2 ar 
     2    1    6 ar 
     3   14    1 1  
     4    2    3 ar 
     5    2   13 1  
     6    3    4 ar 
     7    5    4 ar 
     8    6    5 ar 
     9    7    8 ar 
    10    7   12 ar 
    11   15    7 1  
    12    8    9 ar 
    13    9   10 ar 
    14   11   10 ar 
    15   10   18 1  
    16   12   11 ar 
    17   13   16 ar 
    18   13   17 ar 
    19   14   15 2  
    20    3   19 1  
    21    4   20 1  
    22    5   21 1  
    23    6   22 1  
    24    8   23 1  
    25    9   24 1  
    26   11   25 1  
    27   12   26 1  
    28   18   27 1  
@<TRIPOS>SUBSTRUCTURE
     1 HAB         1

