### 
### Created by X-TOOL on Fri Nov 18 11:55:43 2016
### 

@<TRIPOS>MOLECULE
1srg_ligand
   30    31     1     0     0
SMALL
GAST_HUCK


@<TRIPOS>ATOM
      1 C1         33.3510   12.1830   -5.4430 C.ar      1 MHB         0.0876
      2 C2         34.5890   12.1050   -4.8280 C.ar      1 MHB         0.0372
      3 C3         34.8660   11.0850   -3.9010 C.ar      1 MHB        -0.0426
      4 C4         33.8790   10.1440   -3.6300 C.ar      1 MHB        -0.0551
      5 C5         32.6300   10.1870   -4.2640 C.ar      1 MHB        -0.0541
      6 C6         32.3580   11.2070   -5.1810 C.ar      1 MHB        -0.0307
      7 C1'        31.7400   14.1650   -8.0990 C.ar      1 MHB         0.0639
      8 C2'        32.4780   15.3510   -8.1450 C.ar      1 MHB        -0.0375
      9 C3'        32.0550   16.4220   -8.9240 C.ar      1 MHB        -0.0081
     10 C4'        30.8620   16.2980   -9.6430 C.ar      1 MHB         0.0976
     11 C5'        30.0220   15.2040   -9.6590 C.ar      1 MHB        -0.0300
     12 C6'        30.5500   14.0100   -8.7750 C.ar      1 MHB        -0.0450
     13 C          35.6590   13.1820   -5.0410 C.2       1 MHB         0.0663
     14 CM3        32.8480   17.7280   -8.9480 C.3       1 MHB        -0.0314
     15 N1         33.0450   13.2660   -6.3890 N.2       1 MHB        -0.1793
     16 N1'        32.1540   13.0140   -7.2740 N.2       1 MHB        -0.1835
     17 O          35.4960   14.1610   -5.7470 O.co2     1 MHB        -0.5601
     18 OXT        36.8220   13.0410   -4.2150 O.co2     1 MHB        -0.5601
     19 O4'        30.4180   17.4680  -10.4760 O.3       1 MHB        -0.3312
     20 H1         35.8297   11.0332   -3.4074 H         1 MHB         0.0661
     21 H2         34.0805    9.3582   -2.9110 H         1 MHB         0.0650
     22 H3         31.8804    9.4352   -4.0452 H         1 MHB         0.0647
     23 H4         31.3993   11.2504   -5.6851 H         1 MHB         0.0671
     24 H5         33.3908   15.4368   -7.5666 H         1 MHB         0.0585
     25 H6         29.0956   15.1688  -10.2207 H         1 MHB         0.0547
     26 H7         29.9880   13.0860   -8.7008 H         1 MHB         0.0603
     27 H8         33.7477   17.6222   -8.3240 H         1 MHB         0.0370
     28 H9         32.2232   18.5436   -8.5551 H         1 MHB         0.0370
     29 H10        33.1440   17.9583   -9.9821 H         1 MHB         0.0370
     30 H11        31.0817   17.6614  -11.1276 H         1 MHB         0.2491
@<TRIPOS>BOND
     1   15    1 1  
     2    1    6 ar 
     3    1    2 ar 
     4    2   13 1  
     5    2    3 ar 
     6    3    4 ar 
     7    4    5 ar 
     8    6    5 ar 
     9   13   18 ar 
    10   13   17 ar 
    11   15   16 2  
    12   16    7 1  
    13    7   12 ar 
    14    7    8 ar 
    15    8    9 ar 
    16    9   14 1  
    17    9   10 ar 
    18   10   19 1  
    19   10   11 ar 
    20   11   12 ar 
    21    3   20 1  
    22    4   21 1  
    23    5   22 1  
    24    6   23 1  
    25    8   24 1  
    26   11   25 1  
    27   12   26 1  
    28   14   27 1  
    29   14   28 1  
    30   14   29 1  
    31   19   30 1  
@<TRIPOS>SUBSTRUCTURE
     1 MHB         1

