### 
### Created by X-TOOL on Mon Sep 10 21:12:46 2018
### 

@<TRIPOS>MOLECULE
1stc_ligand
   62    69     1     0     0
SMALL
GAST_HUCK


@<TRIPOS>ATOM
      1 C1          9.9880   20.9530   30.6910 C.ar      1 STU        -0.0696
      2 C2          9.2370   19.8050   30.5020 C.ar      1 STU        -0.0759
      3 C3          7.8530   19.8760   30.2900 C.ar      1 STU        -0.0739
      4 C4          7.1890   21.1000   30.2700 C.ar      1 STU        -0.0408
      5 C5          7.9380   22.3000   30.4410 C.ar      1 STU         0.0695
      6 N6          7.5830   23.6680   30.3550 N.pl3     1 STU        -0.2292
      7 C7          8.7390   24.4230   30.5150 C.ar      1 STU         0.0978
      8 C8          8.9580   25.8320   30.4240 C.ar      1 STU         0.0952
      9 N9          8.0480   26.8590   30.2210 N.pl3     1 STU        -0.2376
     10 C10         8.7700   28.0600   30.1430 C.ar      1 STU         0.0681
     11 C11         8.3210   29.3610   29.8440 C.ar      1 STU        -0.0404
     12 C12         9.2830   30.3890   29.7100 C.ar      1 STU        -0.0732
     13 C13        10.6470   30.1260   29.8750 C.ar      1 STU        -0.0750
     14 C14        11.0950   28.8440   30.1660 C.ar      1 STU        -0.0685
     15 C15        10.1550   27.7780   30.2970 C.ar      1 STU        -0.0072
     16 C16        10.2790   26.3560   30.4880 C.ar      1 STU        -0.0018
     17 C17        11.3820   25.4440   30.6180 C.ar      1 STU         0.0320
     18 C18        12.8320   25.6660   30.8380 C.2       1 STU         0.1871
     19 N19        13.3760   24.4780   31.1080 N.am      1 STU        -0.2790
     20 C20        12.4490   23.3720   31.0800 C.3       1 STU         0.0603
     21 C21        11.1610   24.0810   30.7360 C.ar      1 STU        -0.0168
     22 C22         9.8490   23.5510   30.6820 C.ar      1 STU         0.0011
     23 C23         9.3380   22.2140   30.6640 C.ar      1 STU        -0.0075
     24 C24         6.2610   24.2550   29.9760 C.3       1 STU         0.2020
     25 C25         5.9480   24.2960   28.4550 C.3       1 STU         0.1556
     26 C26         5.3780   25.6340   27.9950 C.3       1 STU         0.0141
     27 C27         6.2200   26.8090   28.4760 C.3       1 STU         0.0455
     28 C28         6.6030   26.7220   29.9550 C.3       1 STU         0.1668
     29 O29         6.0710   25.5490   30.5820 O.3       1 STU        -0.3149
     30 O30        13.4450   26.7050   30.8610 O.2       1 STU        -0.3964
     31 N31         5.0230   25.6030   26.5800 N.4       1 STU         0.2291
     32 C32         3.6090   25.3390   26.3510 C.3       1 STU        -0.0445
     33 O33         7.2630   24.1670   27.8660 O.3       1 STU        -0.3686
     34 C34         7.4290   23.4860   26.6220 C.3       1 STU         0.0373
     35 C35         5.0950   23.5360   30.6640 C.3       1 STU        -0.0059
     36 H1         11.0573   20.8892   30.8572 H         1 STU         0.0566
     37 H2          9.7262   18.8378   30.5182 H         1 STU         0.0516
     38 H3          7.2898   18.9622   30.1390 H         1 STU         0.0561
     39 H4          6.1153   21.1393   30.1261 H         1 STU         0.0538
     40 H5          7.2645   29.5692   29.7197 H         1 STU         0.0539
     41 H6          8.9583   31.3964   29.4758 H         1 STU         0.0568
     42 H7         11.3635   30.9332   29.7744 H         1 STU         0.0516
     43 H8         12.1546   28.6537   30.2932 H         1 STU         0.0576
     44 H9         14.3479   24.3631   31.3133 H         1 STU         0.1863
     45 H10        12.3862   22.8732   32.0584 H         1 STU         0.0679
     46 H11        12.7224   22.6357   30.3099 H         1 STU         0.0679
     47 H12         5.2751   23.4755   28.1652 H         1 STU         0.0710
     48 H13         4.4187   25.7464   28.5214 H         1 STU         0.0880
     49 H14         7.1432   26.8430   27.8789 H         1 STU         0.0372
     50 H15         5.6473   27.7349   28.3187 H         1 STU         0.0372
     51 H16         6.1210   27.5827   30.4416 H         1 STU         0.0933
     52 H17         5.5613   24.8793   26.1300 H         1 STU         0.2014
     53 H18         5.2528   26.4956   26.1720 H         1 STU         0.2014
     54 H19         3.4084   25.3288   25.2695 H         1 STU         0.0777
     55 H20         3.0070   26.1263   26.8281 H         1 STU         0.0777
     56 H21         3.3437   24.3625   26.7823 H         1 STU         0.0777
     57 H22         8.4922   23.4919   26.3398 H         1 STU         0.0524
     58 H23         6.8404   23.9945   25.8442 H         1 STU         0.0524
     59 H24         7.0825   22.4470   26.7236 H         1 STU         0.0524
     60 H25         4.1459   23.9997   30.3570 H         1 STU         0.0284
     61 H26         5.2067   23.6174   31.7553 H         1 STU         0.0284
     62 H27         5.0956   22.4751   30.3734 H         1 STU         0.0284
@<TRIPOS>BOND
     1   23    1 ar 
     2    1    2 ar 
     3    2    3 ar 
     4    3    4 ar 
     5    4    5 ar 
     6    5   23 ar 
     7    5    6 1  
     8    6   24 1  
     9    6    7 1  
    10    7   22 ar 
    11    7    8 ar 
    12    8   16 ar 
    13    8    9 1  
    14    9   28 1  
    15    9   10 1  
    16   10   15 ar 
    17   10   11 ar 
    18   11   12 ar 
    19   12   13 ar 
    20   13   14 ar 
    21   15   14 ar 
    22   15   16 1  
    23   16   17 ar 
    24   17   21 ar 
    25   17   18 1  
    26   18   30 2  
    27   18   19 am 
    28   19   20 1  
    29   21   20 1  
    30   22   21 ar 
    31   22   23 1  
    32   28   29 1  
    33   28   27 1  
    34   27   26 1  
    35   26   31 1  
    36   26   25 1  
    37   25   33 1  
    38   25   24 1  
    39   24   35 1  
    40   24   29 1  
    41   33   34 1  
    42   31   32 1  
    43    1   36 1  
    44    2   37 1  
    45    3   38 1  
    46    4   39 1  
    47   11   40 1  
    48   12   41 1  
    49   13   42 1  
    50   14   43 1  
    51   19   44 1  
    52   20   45 1  
    53   20   46 1  
    54   25   47 1  
    55   26   48 1  
    56   27   49 1  
    57   27   50 1  
    58   28   51 1  
    59   31   52 1  
    60   31   53 1  
    61   32   54 1  
    62   32   55 1  
    63   32   56 1  
    64   34   57 1  
    65   34   58 1  
    66   34   59 1  
    67   35   60 1  
    68   35   61 1  
    69   35   62 1  
@<TRIPOS>SUBSTRUCTURE
     1 STU         1

