### 
### Created by X-TOOL on Mon Sep 10 21:12:44 2018
### 

@<TRIPOS>MOLECULE
1stp_ligand
   31    32     1     0     0
SMALL
GAST_HUCK


@<TRIPOS>ATOM
      1 C11         9.0510    4.5760  -14.4590 C.2       1 BTN         0.0348
      2 O11         8.1470    5.3730  -14.1720 O.co2     1 BTN        -0.5690
      3 O12         8.6970    3.4980  -15.1320 O.co2     1 BTN        -0.5690
      4 C10        10.3210    4.4130  -13.7020 C.3       1 BTN         0.0002
      5 C9         10.2150    3.2470  -12.6580 C.3       1 BTN        -0.0414
      6 C8         11.4870    2.9720  -11.9640 C.3       1 BTN        -0.0505
      7 C7         11.6270    1.5580  -11.4020 C.3       1 BTN        -0.0389
      8 C2         10.9230    1.0860  -10.1950 C.3       1 BTN         0.0302
      9 S1         10.8840    2.1030   -8.6620 S.3       1 BTN        -0.1527
     10 C6         10.2990    0.6200   -7.7600 C.3       1 BTN         0.0190
     11 C5         11.1420   -0.5430   -8.2740 C.3       1 BTN         0.0750
     12 N1         12.4430   -0.6310   -7.6130 N.am      1 BTN        -0.2671
     13 C3         13.4670   -0.4430   -8.4530 C.2       1 BTN         0.2580
     14 O3         14.6920   -0.4460   -8.2050 O.2       1 BTN        -0.4008
     15 N2         12.9740   -0.2370   -9.6950 N.am      1 BTN        -0.2668
     16 C4         11.5130   -0.2650   -9.7270 C.3       1 BTN         0.0775
     17 H1         10.5449    5.3501  -13.1713 H         1 BTN         0.0430
     18 H2         11.1335    4.1886  -14.4088 H         1 BTN         0.0430
     19 H3          9.8992    2.3341  -13.1841 H         1 BTN         0.0283
     20 H4          9.4583    3.5177  -11.9069 H         1 BTN         0.0283
     21 H5         11.5794    3.6813  -11.1284 H         1 BTN         0.0267
     22 H6         12.3073    3.1375  -12.6779 H         1 BTN         0.0267
     23 H7         12.6990    1.4214  -11.1968 H         1 BTN         0.0277
     24 H8         11.3196    0.8810  -12.2127 H         1 BTN         0.0277
     25 H9          9.8778    0.9339  -10.5022 H         1 BTN         0.0435
     26 H10         9.2337    0.4413   -7.9680 H         1 BTN         0.0399
     27 H11        10.4447    0.7487   -6.6773 H         1 BTN         0.0399
     28 H12        10.5834   -1.4847   -8.1682 H         1 BTN         0.0584
     29 H13        12.5556   -0.8126   -6.6361 H         1 BTN         0.1849
     30 H14        13.5450   -0.0828  -10.5014 H         1 BTN         0.1849
     31 H15        11.1519   -1.0675  -10.3870 H         1 BTN         0.0587
@<TRIPOS>BOND
     1    1    2 ar 
     2    1    3 ar 
     3    1    4 1  
     4    4    5 1  
     5    5    6 1  
     6    6    7 1  
     7    7    8 1  
     8    8    9 1  
     9    8   16 1  
    10    9   10 1  
    11   10   11 1  
    12   11   12 1  
    13   11   16 1  
    14   12   13 am 
    15   13   14 2  
    16   13   15 am 
    17   15   16 1  
    18    4   17 1  
    19    4   18 1  
    20    5   19 1  
    21    5   20 1  
    22    6   21 1  
    23    6   22 1  
    24    7   23 1  
    25    7   24 1  
    26    8   25 1  
    27   10   26 1  
    28   10   27 1  
    29   11   28 1  
    30   12   29 1  
    31   15   30 1  
    32   16   31 1  
@<TRIPOS>SUBSTRUCTURE
     1 BTN         1

