### 
### Created by X-TOOL on Mon Sep 10 21:12:45 2018
### 

@<TRIPOS>MOLECULE
1str_ligand
   96    97     1     0     0
SMALL
GAST_HUCK


@<TRIPOS>ATOM
      1 C          17.6770   -2.2200   21.3980 C.2       1 ACE         0.1751
      2 O          16.7060   -1.5320   21.7330 O.2       1 ACE        -0.3972
      3 CH3        17.5430   -3.7360   21.3210 C.3       1 ACE         0.0258
      4 N          18.8400   -1.6640   21.0510 N.am      1 CYS        -0.2650
      5 CA         18.9840   -0.2160   21.0570 C.3       1 CYS         0.1395
      6 C          20.2410    0.4240   20.4650 C.2       1 CYS         0.2048
      7 O          21.4250    0.1810   20.7530 O.2       1 CYS        -0.3943
      8 CB         18.8880    0.3650   22.4510 C.3       1 CYS         0.0311
      9 SG         20.3070   -0.4020   23.2490 S.3       1 CYS        -0.1735
     10 N          19.8680    1.1490   19.4410 N.am      1 HIS        -0.2619
     11 CA         20.7680    2.0060   18.7240 C.3       1 HIS         0.1423
     12 C          19.7310    3.1570   18.6150 C.2       1 HIS         0.2085
     13 O          18.5170    2.8830   18.4750 O.2       1 HIS        -0.3940
     14 CB         21.2080    1.4720   17.3320 C.3       1 HIS         0.0427
     15 CG         22.0630    2.5630   16.6530 C.2       1 HIS         0.0561
     16 ND1        21.4950    3.6170   16.0740 N.pl3     1 HIS        -0.2623
     17 CD2        23.4140    2.7350   16.8090 C.2       1 HIS        -0.0276
     18 CE1        22.4940    4.4550   15.8840 C.2       1 HIS         0.0875
     19 NE2        23.6170    3.9270   16.3180 N.2       1 HIS        -0.3437
     20 N          20.0620    4.4660   18.7680 N.am      1 PRO        -0.2497
     21 CA         19.0800    5.5310   18.7020 C.3       1 PRO         0.1338
     22 C          18.3700    5.6830   17.3740 C.2       1 PRO         0.2041
     23 O          17.2620    6.1990   17.3390 O.2       1 PRO        -0.3944
     24 CB         19.8470    6.7740   19.0540 C.3       1 PRO        -0.0104
     25 CG         21.1280    6.3430   19.6490 C.3       1 PRO        -0.0281
     26 CD         21.3990    5.0270   19.0270 C.3       1 PRO         0.0369
     27 N          18.9820    5.2420   16.2650 N.am      1 GLN        -0.2636
     28 CA         18.4180    5.4150   14.9380 C.3       1 GLN         0.1330
     29 C          17.0130    4.9100   14.7310 C.2       1 GLN         0.2042
     30 O          16.2540    5.5840   14.0350 O.2       1 GLN        -0.3944
     31 CB         19.3160    4.7700   13.9030 C.3       1 GLN         0.0045
     32 CG         18.9000    5.2390   12.4940 C.3       1 GLN         0.0412
     33 CD         19.9080    4.8800   11.4390 C.2       1 GLN         0.1737
     34 OE1        21.1010    5.1020   11.6670 O.2       1 GLN        -0.3973
     35 NE2        19.4790    4.2930   10.3160 N.am      1 GLN        -0.3009
     36 N          16.6090    3.7520   15.2060 N.am      1 ASN        -0.2616
     37 CA         15.2460    3.4060   14.9540 C.3       1 ASN         0.1476
     38 C          14.8340    2.7290   16.1970 C.2       1 ASN         0.2063
     39 O          15.6210    2.0070   16.8170 O.2       1 ASN        -0.3942
     40 CB         15.1010    2.4780   13.7640 C.3       1 ASN         0.0773
     41 CG         15.0710    3.2400   12.4320 C.2       1 ASN         0.1780
     42 OD1        14.1440    3.9800   12.0700 O.2       1 ASN        -0.3970
     43 ND2        16.0970    3.0280   11.6250 N.am      1 ASN        -0.3007
     44 N          13.5900    3.1180   16.4820 N.am      1 THR        -0.2612
     45 CA         12.7310    2.7450   17.6060 C.3       1 THR         0.1561
     46 C          13.4530    2.6730   18.9510 C.2       1 THR         0.2017
     47 O          14.2680    3.5530   19.2580 O.2       1 THR        -0.3946
     48 CB         11.9820    1.3940   17.1650 C.3       1 THR         0.0924
     49 OG1        10.9010    1.2270   18.0920 O.3       1 THR        -0.3874
     50 CG2        12.8820    0.1320   17.1110 C.3       1 THR        -0.0346
     51 N          13.2140    1.6980   19.8240 N.am      1 NH2        -0.2989
     52 H1         18.5027   -4.1735   21.0085 H         1 ACE         0.0467
     53 H2         16.7647   -3.9986   20.5894 H         1 ACE         0.0467
     54 H3         17.2650   -4.1302   22.3096 H         1 ACE         0.0467
     55 H4         19.6119   -2.2424   20.7871 H         1 CYS         0.1883
     56 H5         18.1332    0.1597   20.4697 H         1 CYS         0.0808
     57 H6         17.9463    0.0796   22.9426 H         1 CYS         0.0422
     58 H7         18.9771    1.4613   22.4377 H         1 CYS         0.0422
     59 H8         21.1487   -0.1377   22.7614 H         1 CYS         0.1019
     60 H9         18.9138    1.1036   19.1454 H         1 HIS         0.1885
     61 H10        21.6603    2.2744   19.3085 H         1 HIS         0.0824
     62 H11        20.3216    1.2558   16.7176 H         1 HIS         0.0491
     63 H12        21.8020    0.5543   17.4546 H         1 HIS         0.0491
     64 H13        20.5029    3.7480   15.8303 H         1 HIS         0.2386
     65 H14        24.1400    2.0458   17.2377 H         1 HIS         0.0324
     66 H15        22.4026    5.4419   15.4328 H         1 HIS         0.1149
     67 H16        18.3101    5.3461   19.4656 H         1 PRO         0.0802
     68 H17        19.2783    7.3752   19.7786 H         1 PRO         0.0313
     69 H18        20.0337    7.3706   18.1489 H         1 PRO         0.0313
     70 H19        21.0369    6.2460   20.7409 H         1 PRO         0.0287
     71 H20        21.9285    7.0586   19.4100 H         1 PRO         0.0287
     72 H21        21.9666    4.3810   19.7129 H         1 PRO         0.0524
     73 H22        21.9597    5.1475   18.0884 H         1 PRO         0.0524
     74 H23        19.8618    4.7754   16.3555 H         1 GLN         0.1883
     75 H24        18.3981    6.4979   14.7461 H         1 GLN         0.0801
     76 H25        19.2220    3.6759   13.9674 H         1 GLN         0.0337
     77 H26        20.3600    5.0601   14.0921 H         1 GLN         0.0337
     78 H27        18.7809    6.3324   12.5085 H         1 GLN         0.0504
     79 H28        17.9394    4.7689   12.2365 H         1 GLN         0.0504
     80 H29        20.1321    4.0453    9.6004 H         1 GLN         0.1814
     81 H30        18.5053    4.1019   10.1922 H         1 GLN         0.1814
     82 H31        17.2217    3.1475   15.7151 H         1 ASN         0.1885
     83 H32        14.6433    4.3098   14.7814 H         1 ASN         0.0826
     84 H33        14.1637    1.9119   13.8689 H         1 ASN         0.0551
     85 H34        15.9515    1.7805   13.7535 H         1 ASN         0.0551
     86 H35        16.1417    3.4923   10.7405 H         1 ASN         0.1814
     87 H36        16.8282    2.4034   11.8993 H         1 ASN         0.1814
     88 H37        13.1847    3.7596   15.8308 H         1 THR         0.1884
     89 H38        11.9656    3.5275   17.7152 H         1 THR         0.0826
     90 H39        11.5693    1.5421   16.1562 H         1 THR         0.0639
     91 H40        10.4199    0.4366   17.8766 H         1 THR         0.2101
     92 H41        12.2799   -0.7347   16.8009 H         1 THR         0.0257
     93 H42        13.3098   -0.0562   18.1068 H         1 THR         0.0257
     94 H43        13.6946    0.2918   16.3870 H         1 THR         0.0257
     95 H44        13.7022    1.6773   20.6965 H         1 NH2         0.1815
     96 H45        12.5462    0.9858   19.6077 H         1 NH2         0.1815
@<TRIPOS>BOND
     1    1    2 2  
     2    1    3 1  
     3    6    5 1  
     4    5    8 1  
     5    5    4 1  
     6    8    9 1  
     7    6    7 2  
     8   12   11 1  
     9   11   14 1  
    10   11   10 1  
    11   14   15 1  
    12   15   17 2  
    13   15   16 1  
    14   16   18 1  
    15   18   19 2  
    16   17   19 1  
    17   12   13 2  
    18   21   20 1  
    19   21   24 1  
    20   22   21 1  
    21   22   23 2  
    22   24   25 1  
    23   25   26 1  
    24   20   26 1  
    25   29   28 1  
    26   28   31 1  
    27   28   27 1  
    28   31   32 1  
    29   32   33 1  
    30   33   34 2  
    31   33   35 am 
    32   29   30 2  
    33   38   37 1  
    34   37   40 1  
    35   37   36 1  
    36   40   41 1  
    37   41   42 2  
    38   41   43 am 
    39   38   39 2  
    40   45   46 1  
    41   45   48 1  
    42   44   45 1  
    43   48   49 1  
    44   48   50 1  
    45   46   47 2  
    46    4    1 am 
    47   10    6 am 
    48   20   12 am 
    49   27   22 am 
    50   36   29 am 
    51   44   38 am 
    52   46   51 am 
    53    3   52 1  
    54    3   53 1  
    55    3   54 1  
    56    4   55 1  
    57    5   56 1  
    58    8   57 1  
    59    8   58 1  
    60    9   59 1  
    61   10   60 1  
    62   11   61 1  
    63   14   62 1  
    64   14   63 1  
    65   16   64 1  
    66   17   65 1  
    67   18   66 1  
    68   21   67 1  
    69   24   68 1  
    70   24   69 1  
    71   25   70 1  
    72   25   71 1  
    73   26   72 1  
    74   26   73 1  
    75   27   74 1  
    76   28   75 1  
    77   31   76 1  
    78   31   77 1  
    79   32   78 1  
    80   32   79 1  
    81   35   80 1  
    82   35   81 1  
    83   36   82 1  
    84   37   83 1  
    85   40   84 1  
    86   40   85 1  
    87   43   86 1  
    88   43   87 1  
    89   44   88 1  
    90   45   89 1  
    91   48   90 1  
    92   49   91 1  
    93   50   92 1  
    94   50   93 1  
    95   50   94 1  
    96   51   95 1  
    97   51   96 1  
@<TRIPOS>SUBSTRUCTURE
     1 ACE         1

