### 
### Created by X-TOOL on Mon Sep 10 21:12:51 2018
### 

@<TRIPOS>MOLECULE
1sv3_ligand
   18    18     1     0     0
SMALL
GAST_HUCK


@<TRIPOS>ATOM
      1 C8         46.4200   30.7860    7.8740 C.3       1 ANN         0.0601
      2 O3         46.5350   30.4990    6.4750 O.3       1 ANN        -0.3191
      3 C5         47.5800   30.9340    5.6840 C.ar      1 ANN         0.0940
      4 C6         47.6250   30.5410    4.3510 C.ar      1 ANN        -0.0292
      5 C7         48.6570   30.9560    3.5140 C.ar      1 ANN        -0.0562
      6 C2         49.6670   31.7750    4.0070 C.ar      1 ANN        -0.0010
      7 C3         49.6250   32.1760    5.3340 C.ar      1 ANN        -0.0562
      8 C4         48.5940   31.7570    6.1740 C.ar      1 ANN        -0.0292
      9 C1         50.7940   32.2310    3.1220 C.2       1 ANN         0.0557
     10 O1         51.6910   32.9540    3.5400 O.co2     1 ANN        -0.5636
     11 O2         50.8170   31.8340    1.8630 O.co2     1 ANN        -0.5636
     12 H1         45.5014   30.3268    8.2682 H         1 ANN         0.0579
     13 H2         46.3784   31.8751    8.0227 H         1 ANN         0.0579
     14 H3         47.2918   30.3764    8.4052 H         1 ANN         0.0579
     15 H4         46.8437   29.9010    3.9572 H         1 ANN         0.0551
     16 H5         48.6734   30.6405    2.4771 H         1 ANN         0.0623
     17 H6         50.4031   32.8229    5.7228 H         1 ANN         0.0623
     18 H7         48.5804   32.0719    7.2112 H         1 ANN         0.0551
@<TRIPOS>BOND
     1    1    2 1  
     2    2    3 1  
     3    3    4 ar 
     4    3    8 ar 
     5    4    5 ar 
     6    5    6 ar 
     7    6    7 ar 
     8    6    9 1  
     9    7    8 ar 
    10    9   10 ar 
    11    9   11 ar 
    12    1   12 1  
    13    1   13 1  
    14    1   14 1  
    15    4   15 1  
    16    5   16 1  
    17    7   17 1  
    18    8   18 1  
@<TRIPOS>SUBSTRUCTURE
     1 ANN         1

