### 
### Created by X-TOOL on Mon Sep 10 21:12:52 2018
### 

@<TRIPOS>MOLECULE
1sve_ligand
   64    67     1     0     0
SMALL
GAST_HUCK


@<TRIPOS>ATOM
      1 F96        16.9640   11.9350   -3.5410 F         1 I01        -0.1869
      2 C76        15.9570   11.6340   -4.3510 C.ar      1 I01         0.1715
      3 C75        16.2740   10.9660   -5.4930 C.ar      1 I01         0.1188
      4 O95        17.6140   10.6450   -5.6250 O.3       1 I01        -0.3271
      5 C98        18.0870   10.2850   -6.9000 C.3       1 I01         0.0562
      6 C74        15.2230   10.6400   -6.3710 C.ar      1 I01        -0.0380
      7 C73        13.9200   11.0270   -6.0500 C.ar      1 I01        -0.0389
      8 C72        13.6150   11.7500   -4.8430 C.ar      1 I01         0.0954
      9 O92        12.4040   12.1290   -4.5410 O.3       1 I01        -0.3355
     10 C71        14.7000   12.0480   -3.9720 C.ar      1 I01         0.0886
     11 C61        14.5740   12.7890   -2.7270 C.2       1 I01         0.1545
     12 O62        15.2440   13.8380   -2.5450 O.2       1 I01        -0.3748
     13 C54        13.7560   12.3760   -1.5800 C.ar      1 I01         0.0350
     14 C55        13.4500   11.0130   -1.3260 C.ar      1 I01        -0.0383
     15 C56        12.7050   10.6880   -0.1990 C.ar      1 I01        -0.0354
     16 C53        13.3220   13.3690   -0.6930 C.ar      1 I01        -0.0383
     17 C52        12.5900   13.0410    0.4190 C.ar      1 I01        -0.0354
     18 C51        12.2760   11.7040    0.6920 C.ar      1 I01         0.0661
     19 C42        11.5170   11.4040    1.9110 C.2       1 I01         0.2664
     20 O43        11.3180   12.2070    2.8330 O.2       1 I01        -0.3550
     21 O41        11.0480   10.1530    2.0210 O.3       1 I01        -0.2712
     22 C37        10.4780    9.6780    3.2170 C.3       1 I01         0.1145
     23 C36        11.5910    9.3580    4.2390 C.3       1 I01        -0.0151
     24 C35        12.7930    8.5620    3.7120 C.3       1 I01        -0.0098
     25 C34        12.5100    7.0730    3.7520 C.3       1 I01        -0.0335
     26 N33        11.4120    6.7720    2.8210 N.4       1 I01         0.2287
     27 C32        10.0720    7.1110    3.3470 C.3       1 I01        -0.0073
     28 C31         9.5810    8.4880    2.8650 C.3       1 I01         0.1115
     29 N23         8.2330    8.7490    3.3760 N.am      1 I01        -0.2733
     30 C21         7.1170    8.9480    2.5610 C.2       1 I01         0.2156
     31 O22         7.2630    9.0250    1.3290 O.2       1 I01        -0.3793
     32 C14         5.7870    9.0600    3.1830 C.ar      1 I01         0.0697
     33 C13         4.6600    9.1210    2.3520 C.ar      1 I01        -0.0141
     34 C12         3.3970    9.2150    2.9090 C.ar      1 I01         0.0169
     35 N11         3.2440    9.2480    4.2950 N.ar      1 I01        -0.2918
     36 C16         4.3410    9.1810    5.1320 C.ar      1 I01         0.0169
     37 C15         5.6040    9.0860    4.5880 C.ar      1 I01        -0.0141
     38 H1         19.1623   10.0603   -6.8422 H         1 I01         0.0571
     39 H2         17.9235   11.1174   -7.6003 H         1 I01         0.0571
     40 H3         17.5452    9.3958   -7.2545 H         1 I01         0.0571
     41 H4         15.4228   10.0946   -7.2862 H         1 I01         0.0545
     42 H5         13.1142   10.7754   -6.7300 H         1 I01         0.0496
     43 H6         11.8418   11.3661   -4.4749 H         1 I01         0.2473
     44 H7         13.7925   10.2373   -2.0013 H         1 I01         0.0679
     45 H8         12.4507    9.6532   -0.0002 H         1 I01         0.0682
     46 H9         13.5671   14.4069   -0.8874 H         1 I01         0.0679
     47 H10        12.2522   13.8216    1.0910 H         1 I01         0.0682
     48 H11         9.8447   10.4665    3.6495 H         1 I01         0.0673
     49 H12        11.1380    8.7780    5.0566 H         1 I01         0.0296
     50 H13        11.9688   10.3132    4.6325 H         1 I01         0.0296
     51 H14        13.6718    8.7792    4.3369 H         1 I01         0.0318
     52 H15        12.9979    8.8626    2.6739 H         1 I01         0.0318
     53 H16        12.2205    6.7793    4.7718 H         1 I01         0.0814
     54 H17        13.4110    6.5176    3.4523 H         1 I01         0.0814
     55 H18        11.4319    5.7855    2.6147 H         1 I01         0.2014
     56 H19        11.5621    7.2958    1.9729 H         1 I01         0.2014
     57 H20        10.1155    7.1169    4.4461 H         1 I01         0.0838
     58 H21         9.3573    6.3447    3.0124 H         1 I01         0.0838
     59 H22         9.5279    8.4388    1.7674 H         1 I01         0.0639
     60 H23         8.1046    8.7869    4.3670 H         1 I01         0.1854
     61 H24         4.7777    9.0946    1.2747 H         1 I01         0.0762
     62 H25         2.5248    9.2631    2.2671 H         1 I01         0.0837
     63 H26         4.2096    9.2030    6.2078 H         1 I01         0.0837
     64 H27         6.4666    9.0306    5.2421 H         1 I01         0.0762
@<TRIPOS>BOND
     1    1    2 1  
     2    2    3 ar 
     3    2   10 ar 
     4    3    4 1  
     5    3    6 ar 
     6    4    5 1  
     7    6    7 ar 
     8    7    8 ar 
     9    8    9 1  
    10    8   10 ar 
    11   10   11 1  
    12   11   12 2  
    13   11   13 1  
    14   13   14 ar 
    15   13   16 ar 
    16   14   15 ar 
    17   15   18 ar 
    18   16   17 ar 
    19   17   18 ar 
    20   18   19 1  
    21   19   20 2  
    22   19   21 1  
    23   21   22 1  
    24   22   23 1  
    25   22   28 1  
    26   23   24 1  
    27   24   25 1  
    28   25   26 1  
    29   26   27 1  
    30   27   28 1  
    31   28   29 1  
    32   29   30 am 
    33   30   31 2  
    34   30   32 1  
    35   32   33 ar 
    36   32   37 ar 
    37   33   34 ar 
    38   34   35 ar 
    39   35   36 ar 
    40   36   37 ar 
    41    5   38 1  
    42    5   39 1  
    43    5   40 1  
    44    6   41 1  
    45    7   42 1  
    46    9   43 1  
    47   14   44 1  
    48   15   45 1  
    49   16   46 1  
    50   17   47 1  
    51   22   48 1  
    52   23   49 1  
    53   23   50 1  
    54   24   51 1  
    55   24   52 1  
    56   25   53 1  
    57   25   54 1  
    58   26   55 1  
    59   26   56 1  
    60   27   57 1  
    61   27   58 1  
    62   28   59 1  
    63   29   60 1  
    64   33   61 1  
    65   34   62 1  
    66   36   63 1  
    67   37   64 1  
@<TRIPOS>SUBSTRUCTURE
     1 I01         1

