### 
### Created by X-TOOL on Mon Sep 10 21:12:52 2018
### 

@<TRIPOS>MOLECULE
1svg_ligand
   65    68     1     0     0
SMALL
GAST_HUCK


@<TRIPOS>ATOM
      1 F96        17.1040   12.0200   -3.4210 F         1 I04        -0.1869
      2 C76        16.1080   11.7360   -4.2890 C.ar      1 I04         0.1715
      3 C75        16.3970   11.0580   -5.4640 C.ar      1 I04         0.1188
      4 O95        17.7050   10.6830   -5.6690 O.3       1 I04        -0.3271
      5 C98        18.0500   10.2530   -6.9860 C.3       1 I04         0.0562
      6 C74        15.3430   10.7900   -6.3870 C.ar      1 I04        -0.0380
      7 C73        14.0600   11.1780   -6.0920 C.ar      1 I04        -0.0389
      8 C72        13.7500   11.8590   -4.8680 C.ar      1 I04         0.0954
      9 O92        12.5420   12.2190   -4.6090 O.3       1 I04        -0.3355
     10 C71        14.8190   12.1390   -3.9570 C.ar      1 I04         0.0885
     11 C61        14.6480   12.8520   -2.7220 C.2       1 I04         0.1544
     12 O62        15.3150   13.8970   -2.6300 O.2       1 I04        -0.3748
     13 C54        13.8380   12.4570   -1.5650 C.ar      1 I04         0.0348
     14 C55        13.6060   11.0960   -1.2660 C.ar      1 I04        -0.0386
     15 C56        12.8840   10.7200   -0.1470 C.ar      1 I04        -0.0367
     16 C53        13.3110   13.4530   -0.7260 C.ar      1 I04        -0.0386
     17 C52        12.5920   13.0820    0.3790 C.ar      1 I04        -0.0367
     18 C51        12.3790   11.7320    0.6820 C.ar      1 I04         0.0539
     19 C42        11.6290   11.4110    1.8830 C.2       1 I04         0.2080
     20 O43        11.5290   12.2580    2.7560 O.2       1 I04        -0.3830
     21 N41        11.0620   10.1800    2.0090 N.am      1 I04        -0.2802
     22 C37        10.5010    9.6830    3.2260 C.3       1 I04         0.0696
     23 C36        11.6340    9.2690    4.2060 C.3       1 I04        -0.0228
     24 C35        12.6890    8.3300    3.5950 C.3       1 I04        -0.0104
     25 C34        12.2660    6.8630    3.5850 C.3       1 I04        -0.0335
     26 N33        11.0890    6.6130    2.7100 N.4       1 I04         0.2287
     27 C32         9.8640    7.0860    3.3330 C.3       1 I04        -0.0080
     28 C31         9.5190    8.5300    2.8830 C.3       1 I04         0.1040
     29 N23         8.1940    8.7520    3.4130 N.am      1 I04        -0.2740
     30 C21         7.1140    8.9730    2.5750 C.2       1 I04         0.2156
     31 O22         7.2880    8.9940    1.3350 O.2       1 I04        -0.3793
     32 C14         5.7780    9.1120    3.1660 C.ar      1 I04         0.0697
     33 C13         4.6850    9.0500    2.2800 C.ar      1 I04        -0.0141
     34 C12         3.4040    9.1320    2.7500 C.ar      1 I04         0.0169
     35 N11         3.1600    9.2440    4.1130 N.ar      1 I04        -0.2918
     36 C16         4.2120    9.2980    5.0180 C.ar      1 I04         0.0169
     37 C15         5.5190    9.2140    4.5440 C.ar      1 I04        -0.0141
     38 H1         19.1160    9.9833   -7.0161 H         1 I04         0.0571
     39 H2         17.8576   11.0675   -7.6999 H         1 I04         0.0571
     40 H3         17.4424    9.3769   -7.2567 H         1 I04         0.0571
     41 H4         15.5551   10.2806   -7.3201 H         1 I04         0.0545
     42 H5         13.2652   10.9657   -6.7979 H         1 I04         0.0496
     43 H6         11.9815   11.4521   -4.5891 H         1 I04         0.2473
     44 H7         14.0010   10.3318   -1.9256 H         1 I04         0.0679
     45 H8         12.7138    9.6742    0.0820 H         1 I04         0.0679
     46 H9         13.4713   14.5014   -0.9503 H         1 I04         0.0679
     47 H10        12.1813   13.8459    1.0293 H         1 I04         0.0679
     48 H11        11.0365    9.5887    1.2029 H         1 I04         0.1850
     49 H12         9.9244   10.4889    3.7035 H         1 I04         0.0580
     50 H13        11.1760    8.7589    5.0662 H         1 I04         0.0290
     51 H14        12.1430   10.1817    4.5493 H         1 I04         0.0290
     52 H15        13.6163    8.4209    4.1796 H         1 I04         0.0317
     53 H16        12.8768    8.6452    2.5580 H         1 I04         0.0317
     54 H17        12.0115    6.5627    4.6121 H         1 I04         0.0814
     55 H18        13.1089    6.2557    3.2236 H         1 I04         0.0814
     56 H19        11.0103    5.6227    2.5391 H         1 I04         0.2014
     57 H20        11.2209    7.0956    1.8349 H         1 I04         0.2014
     58 H21         9.9902    7.0726    4.4256 H         1 I04         0.0837
     59 H22         9.0379    6.4167    3.0510 H         1 I04         0.0837
     60 H23         9.4551    8.5182    1.7849 H         1 I04         0.0632
     61 H24         8.0539    8.7460    4.4031 H         1 I04         0.1854
     62 H25         4.8610    8.9363    1.2164 H         1 I04         0.0762
     63 H26         2.5729    9.1095    2.0544 H         1 I04         0.0837
     64 H27         4.0185    9.4041    6.0793 H         1 I04         0.0837
     65 H28         6.3455    9.2274    5.2453 H         1 I04         0.0762
@<TRIPOS>BOND
     1    1    2 1  
     2    2    3 ar 
     3    2   10 ar 
     4    3    4 1  
     5    3    6 ar 
     6    4    5 1  
     7    6    7 ar 
     8    7    8 ar 
     9    8    9 1  
    10    8   10 ar 
    11   10   11 1  
    12   11   12 2  
    13   11   13 1  
    14   13   14 ar 
    15   13   16 ar 
    16   14   15 ar 
    17   15   18 ar 
    18   16   17 ar 
    19   17   18 ar 
    20   18   19 1  
    21   19   20 2  
    22   19   21 am 
    23   21   22 1  
    24   22   23 1  
    25   22   28 1  
    26   23   24 1  
    27   24   25 1  
    28   25   26 1  
    29   26   27 1  
    30   27   28 1  
    31   28   29 1  
    32   29   30 am 
    33   30   31 2  
    34   30   32 1  
    35   32   33 ar 
    36   32   37 ar 
    37   33   34 ar 
    38   34   35 ar 
    39   35   36 ar 
    40   36   37 ar 
    41    5   38 1  
    42    5   39 1  
    43    5   40 1  
    44    6   41 1  
    45    7   42 1  
    46    9   43 1  
    47   14   44 1  
    48   15   45 1  
    49   16   46 1  
    50   17   47 1  
    51   21   48 1  
    52   22   49 1  
    53   23   50 1  
    54   23   51 1  
    55   24   52 1  
    56   24   53 1  
    57   25   54 1  
    58   25   55 1  
    59   26   56 1  
    60   26   57 1  
    61   27   58 1  
    62   27   59 1  
    63   28   60 1  
    64   29   61 1  
    65   33   62 1  
    66   34   63 1  
    67   36   64 1  
    68   37   65 1  
@<TRIPOS>SUBSTRUCTURE
     1 I04         1

