### 
### Created by X-TOOL on Mon Sep 10 21:12:53 2018
### 

@<TRIPOS>MOLECULE
1svh_ligand
   65    68     1     0     0
SMALL
GAST_HUCK


@<TRIPOS>ATOM
      1 F96        36.2690   16.2010    7.8140 F         1 I08        -0.1870
      2 C76        35.2130   15.3860    7.9370 C.ar      1 I08         0.1712
      3 C75        35.3840   14.2780    8.6890 C.ar      1 I08         0.1187
      4 O95        36.6400   14.0420    9.2690 O.3       1 I08        -0.3271
      5 C98        36.8280   12.7440    9.8580 C.3       1 I08         0.0562
      6 C74        34.2510   13.4390    8.8510 C.ar      1 I08        -0.0381
      7 C73        33.0460   13.7300    8.2610 C.ar      1 I08        -0.0390
      8 C72        32.8590   14.9150    7.4870 C.ar      1 I08         0.0952
      9 O92        31.7240   15.1980    6.9160 O.3       1 I08        -0.3355
     10 C71        33.9910   15.7570    7.3450 C.ar      1 I08         0.0868
     11 C61        33.9010   16.9490    6.5340 C.2       1 I08         0.1473
     12 O62        34.5150   16.9800    5.4770 O.2       1 I08        -0.3799
     13 C54        33.1070   18.1050    6.8670 C.ar      1 I08         0.0252
     14 C55        32.6400   18.2520    8.2050 C.ar      1 I08        -0.0490
     15 C56        31.8910   19.3780    8.5770 C.ar      1 I08        -0.0568
     16 C53        32.8100   19.0590    5.8800 C.ar      1 I08        -0.0490
     17 C52        32.0510   20.1800    6.2420 C.ar      1 I08        -0.0568
     18 C51        31.5830   20.3500    7.5990 C.ar      1 I08        -0.0368
     19 C42        30.8150   21.5280    7.9710 C.2       1 I08        -0.0628
     20 C41        30.1810   21.6340    9.1630 C.2       1 I08        -0.0654
     21 C37        29.4440   22.8840    9.5330 C.3       1 I08         0.0209
     22 C36        30.5220   23.9530    9.9280 C.3       1 I08        -0.0308
     23 C35        31.5550   23.4730   10.9920 C.3       1 I08        -0.0099
     24 C34        30.9480   23.6260   12.3880 C.3       1 I08        -0.0334
     25 N33        29.7770   22.7130   12.5480 N.4       1 I08         0.2288
     26 C32        28.5170   23.2130   11.9460 C.3       1 I08        -0.0074
     27 C31        28.3080   22.6650   10.5580 C.3       1 I08         0.0960
     28 N23        27.0710   23.2800   10.0710 N.am      1 I08        -0.2733
     29 C21        25.9750   22.5110    9.6990 C.2       1 I08         0.2157
     30 O22        26.1490   21.3000    9.6080 O.2       1 I08        -0.3793
     31 C14        24.6550   23.0800    9.4930 C.ar      1 I08         0.0697
     32 C13        23.5840   22.1760    9.3710 C.ar      1 I08        -0.0141
     33 C12        22.2970   22.6250    9.2180 C.ar      1 I08         0.0169
     34 N11        22.0460   23.9910    9.1270 N.ar      1 I08        -0.2918
     35 C16        23.0790   24.9140    9.2220 C.ar      1 I08         0.0169
     36 C15        24.3860   24.4690    9.4110 C.ar      1 I08        -0.0141
     37 H1         37.8424   12.6754   10.2779 H         1 I08         0.0571
     38 H2         36.6967   11.9694    9.0881 H         1 I08         0.0571
     39 H3         36.0888   12.5941   10.6587 H         1 I08         0.0571
     40 H4         34.3394   12.5444    9.4568 H         1 I08         0.0544
     41 H5         32.2165   13.0434    8.3858 H         1 I08         0.0496
     42 H6         31.0467   15.2693    7.5783 H         1 I08         0.2473
     43 H7         32.8651   17.4883    8.9406 H         1 I08         0.0654
     44 H8         31.5534   19.5007    9.5998 H         1 I08         0.0589
     45 H9         33.1597   18.9312    4.8620 H         1 I08         0.0654
     46 H10        31.8120   20.9287    5.4954 H         1 I08         0.0589
     47 H11        30.7474   22.3547    7.2654 H         1 I08         0.0440
     48 H12        30.2075   20.7991    9.8617 H         1 I08         0.0766
     49 H13        28.9501   23.2517    8.6215 H         1 I08         0.0533
     50 H14        30.0000   24.8338   10.3301 H         1 I08         0.0300
     51 H15        31.0728   24.2364    9.0190 H         1 I08         0.0300
     52 H16        32.4681   24.0821   10.9192 H         1 I08         0.0319
     53 H17        31.8037   22.4166   10.8129 H         1 I08         0.0319
     54 H18        30.6187   24.6661   12.5283 H         1 I08         0.0814
     55 H19        31.7079   23.3769   13.1432 H         1 I08         0.0814
     56 H20        29.6203   22.5726   13.5338 H         1 I08         0.2014
     57 H21        30.0041   21.8316   12.1149 H         1 I08         0.2014
     58 H22        28.5578   24.3110   11.8935 H         1 I08         0.0839
     59 H23        27.6724   22.9074   12.5810 H         1 I08         0.0839
     60 H24        28.1615   21.5784   10.6459 H         1 I08         0.0643
     61 H25        27.0139   24.2762   10.0047 H         1 I08         0.1856
     62 H26        23.7785   21.1099    9.3983 H         1 I08         0.0762
     63 H27        21.4772   21.9175    9.1681 H         1 I08         0.0837
     64 H28        22.8699   25.9752    9.1495 H         1 I08         0.0837
     65 H29        25.1960   25.1845    9.4952 H         1 I08         0.0762
@<TRIPOS>BOND
     1    1    2 1  
     2    2    3 ar 
     3    2   10 ar 
     4    3    4 1  
     5    3    6 ar 
     6    4    5 1  
     7    6    7 ar 
     8    7    8 ar 
     9    8    9 1  
    10    8   10 ar 
    11   10   11 1  
    12   11   12 2  
    13   11   13 1  
    14   13   14 ar 
    15   13   16 ar 
    16   14   15 ar 
    17   15   18 ar 
    18   16   17 ar 
    19   17   18 ar 
    20   18   19 1  
    21   19   20 2  
    22   20   21 1  
    23   21   22 1  
    24   21   27 1  
    25   22   23 1  
    26   23   24 1  
    27   24   25 1  
    28   25   26 1  
    29   26   27 1  
    30   27   28 1  
    31   28   29 am 
    32   29   30 2  
    33   29   31 1  
    34   31   32 ar 
    35   31   36 ar 
    36   32   33 ar 
    37   33   34 ar 
    38   34   35 ar 
    39   35   36 ar 
    40    5   37 1  
    41    5   38 1  
    42    5   39 1  
    43    6   40 1  
    44    7   41 1  
    45    9   42 1  
    46   14   43 1  
    47   15   44 1  
    48   16   45 1  
    49   17   46 1  
    50   19   47 1  
    51   20   48 1  
    52   21   49 1  
    53   22   50 1  
    54   22   51 1  
    55   23   52 1  
    56   23   53 1  
    57   24   54 1  
    58   24   55 1  
    59   25   56 1  
    60   25   57 1  
    61   26   58 1  
    62   26   59 1  
    63   27   60 1  
    64   28   61 1  
    65   32   62 1  
    66   33   63 1  
    67   35   64 1  
    68   36   65 1  
@<TRIPOS>SUBSTRUCTURE
     1 I08         1

