### 
### Created by X-TOOL on Fri Sep 26 17:34:25 2014
### 

@<TRIPOS>MOLECULE
1sw1_ligand
   23    23     1     0     0
SMALL
GAST_HUCK


@<TRIPOS>ATOM
      1 N          13.5970    2.1320   15.1660 N.4       1 PBE         0.2527
      2 CD         12.3000    2.1790   15.7850 C.3       1 PBE        -0.0287
      3 CA         13.9600    3.4960   14.8080 C.3       1 PBE         0.0334
      4 CB         13.4950    4.2730   16.0480 C.3       1 PBE         0.0074
      5 CG         12.5720    3.3170   16.7550 C.3       1 PBE        -0.0057
      6 CE         14.4490    1.6270   16.2540 C.3       1 PBE        -0.0399
      7 CF         13.5800    1.3710   13.9090 C.3       1 PBE        -0.0399
      8 C          15.4350    3.5270   14.5670 C.2       1 PBE         0.0846
      9 O          15.8980    3.2440   13.4280 O.co2     1 PBE        -0.5643
     10 OXT        16.1370    3.8610   15.5430 O.co2     1 PBE        -0.5643
     11 H1         12.0506    1.2408   16.3023 H         1 PBE         0.0815
     12 H2         11.5038    2.4246   15.0668 H         1 PBE         0.0815
     13 H3         13.4322    3.8451   13.9083 H         1 PBE         0.1026
     14 H4         12.9601    5.1891   15.7570 H         1 PBE         0.0340
     15 H5         14.3503    4.5354   16.6880 H         1 PBE         0.0340
     16 H6         13.0508    2.9319   17.6674 H         1 PBE         0.0320
     17 H7         11.6319    3.8230   17.0198 H         1 PBE         0.0320
     18 H8         14.1533    0.5972   16.5033 H         1 PBE         0.0778
     19 H9         14.3299    2.2674   17.1404 H         1 PBE         0.0778
     20 H10        15.5007    1.6387   15.9317 H         1 PBE         0.0778
     21 H11        12.9050    1.8618   13.1924 H         1 PBE         0.0778
     22 H12        13.2261    0.3480   14.1044 H         1 PBE         0.0778
     23 H13        14.5960    1.3336   13.4892 H         1 PBE         0.0778
@<TRIPOS>BOND
     1    1    2 1  
     2    1    3 1  
     3    1    6 1  
     4    1    7 1  
     5    2    5 1  
     6    3    4 1  
     7    3    8 1  
     8    4    5 1  
     9    8    9 ar 
    10    8   10 ar 
    11    2   11 1  
    12    2   12 1  
    13    3   13 1  
    14    4   14 1  
    15    4   15 1  
    16    5   16 1  
    17    5   17 1  
    18    6   18 1  
    19    6   19 1  
    20    6   20 1  
    21    7   21 1  
    22    7   22 1  
    23    7   23 1  
@<TRIPOS>SUBSTRUCTURE
     1 PBE         1

