### 
### Created by X-TOOL on Mon Sep 10 21:12:51 2018
### 

@<TRIPOS>MOLECULE
1sw2_ligand
   19    18     1     0     0
SMALL
GAST_HUCK


@<TRIPOS>ATOM
      1 N          14.4560   19.2630   12.7090 N.4       1 BET         0.2484
      2 CA         15.3860   18.8190   11.6390 C.3       1 BET         0.0222
      3 C          15.5120   17.2950   11.5620 C.2       1 BET         0.0813
      4 O1         16.3830   16.7740   12.1950 O.co2     1 BET        -0.5645
      5 O2         14.7100   16.5320   10.8410 O.co2     1 BET        -0.5645
      6 C1         13.0970   18.8000   12.4060 C.3       1 BET        -0.0405
      7 C2         14.9070   18.7800   14.0190 C.3       1 BET        -0.0405
      8 C3         14.4350   20.7400   12.7360 C.3       1 BET        -0.0405
      9 H1         16.3805   19.2449   11.8378 H         1 BET         0.0989
     10 H2         15.0143   19.1908   10.6728 H         1 BET         0.0989
     11 H3         12.4115   19.1305   13.2002 H         1 BET         0.0778
     12 H4         13.0883   17.7016   12.3478 H         1 BET         0.0778
     13 H5         12.7724   19.2208   11.4429 H         1 BET         0.0778
     14 H6         15.9264   19.1448   14.2132 H         1 BET         0.0778
     15 H7         14.9038   17.6800   14.0253 H         1 BET         0.0778
     16 H8         14.2290   19.1531   14.8007 H         1 BET         0.0778
     17 H9         14.0986   21.1198   11.7600 H         1 BET         0.0778
     18 H10        15.4464   21.1173   12.9474 H         1 BET         0.0778
     19 H11        13.7444   21.0826   13.5206 H         1 BET         0.0778
@<TRIPOS>BOND
     1    1    2 1  
     2    1    6 1  
     3    1    7 1  
     4    1    8 1  
     5    2    3 1  
     6    3    4 ar 
     7    3    5 ar 
     8    2    9 1  
     9    2   10 1  
    10    6   11 1  
    11    6   12 1  
    12    6   13 1  
    13    7   14 1  
    14    7   15 1  
    15    7   16 1  
    16    8   17 1  
    17    8   18 1  
    18    8   19 1  
@<TRIPOS>SUBSTRUCTURE
     1 BET         1

