### 
### Created by X-TOOL on Mon Sep 10 21:12:46 2018
### 

@<TRIPOS>MOLECULE
1swg_ligand
   31    32     1     0     0
SMALL
GAST_HUCK


@<TRIPOS>ATOM
      1 C11        13.8230   15.4720   18.2480 C.2       1 BTN         0.0348
      2 O11        14.0450   15.9210   17.0920 O.co2     1 BTN        -0.5690
      3 O12        14.7540   15.0090   18.9720 O.co2     1 BTN        -0.5690
      4 C10        12.4110   15.4940   18.7050 C.3       1 BTN         0.0002
      5 C9         11.5780   16.5940   18.0180 C.3       1 BTN        -0.0414
      6 C8         11.8760   17.9300   18.6780 C.3       1 BTN        -0.0505
      7 C7         11.1330   19.1590   18.1180 C.3       1 BTN        -0.0389
      8 C2         11.4950   20.4790   18.7970 C.3       1 BTN         0.0302
      9 S1         11.0380   20.5580   20.5830 S.3       1 BTN        -0.1527
     10 C6         11.4720   22.3320   20.5860 C.3       1 BTN         0.0190
     11 C5         10.9390   22.9040   19.2940 C.3       1 BTN         0.0750
     12 N1          9.5410   23.3110   19.3310 N.am      1 BTN        -0.2671
     13 C3          8.7770   22.5910   18.5060 C.2       1 BTN         0.2580
     14 O3          7.5460   22.7020   18.2980 O.2       1 BTN        -0.4008
     15 N2          9.5720   21.7110   17.8520 N.am      1 BTN        -0.2668
     16 C4         10.9550   21.7700   18.2320 C.3       1 BTN         0.0775
     17 H1         12.3957   15.6683   19.7910 H         1 BTN         0.0430
     18 H2         11.9547   14.5179   18.4838 H         1 BTN         0.0430
     19 H3         10.5074   16.3633   18.1207 H         1 BTN         0.0283
     20 H4         11.8418   16.6434   16.9512 H         1 BTN         0.0283
     21 H5         12.9551   18.1183   18.5774 H         1 BTN         0.0267
     22 H6         11.6171   17.8408   19.7434 H         1 BTN         0.0267
     23 H7         10.0526   18.9936   18.2415 H         1 BTN         0.0277
     24 H8         11.3706   19.2464   17.0475 H         1 BTN         0.0277
     25 H9         12.5913   20.5380   18.7284 H         1 BTN         0.0435
     26 H10        12.5638   22.4564   20.6352 H         1 BTN         0.0399
     27 H11        11.0064   22.8360   21.4457 H         1 BTN         0.0399
     28 H12        11.5692   23.7520   18.9879 H         1 BTN         0.0584
     29 H13         9.1921   24.0479   19.9100 H         1 BTN         0.1849
     30 H14         9.2252   21.0744   17.1632 H         1 BTN         0.1849
     31 H15        11.5748   22.0542   17.3688 H         1 BTN         0.0587
@<TRIPOS>BOND
     1    1    4 1  
     2    1    3 ar 
     3    1    2 ar 
     4    4    5 1  
     5    5    6 1  
     6    6    7 1  
     7    7    8 1  
     8    8   16 1  
     9    8    9 1  
    10    9   10 1  
    11   10   11 1  
    12   11   16 1  
    13   11   12 1  
    14   12   13 am 
    15   13   15 am 
    16   13   14 2  
    17   15   16 1  
    18    4   17 1  
    19    4   18 1  
    20    5   19 1  
    21    5   20 1  
    22    6   21 1  
    23    6   22 1  
    24    7   23 1  
    25    7   24 1  
    26    8   25 1  
    27   10   26 1  
    28   10   27 1  
    29   11   28 1  
    30   12   29 1  
    31   15   30 1  
    32   16   31 1  
@<TRIPOS>SUBSTRUCTURE
     1 BTN         1

