### 
### Created by X-TOOL on Mon Sep 10 21:12:45 2018
### 

@<TRIPOS>MOLECULE
1swi_ligand
   12    12     1     0     0
SMALL
GAST_HUCK


@<TRIPOS>ATOM
      1 C1        -10.2480   -9.5580   31.4800 C.ar      1 BNZ        -0.0618
      2 C2        -10.0100   -8.6480   32.5110 C.ar      1 BNZ        -0.0618
      3 C3         -8.7790   -7.9830   32.5400 C.ar      1 BNZ        -0.0618
      4 C4         -7.8270   -8.1440   31.5320 C.ar      1 BNZ        -0.0618
      5 C5         -8.1240   -8.9970   30.4700 C.ar      1 BNZ        -0.0618
      6 C6         -9.3150   -9.7220   30.4580 C.ar      1 BNZ        -0.0618
      7 H1        -11.1626  -10.1398   31.4742 H         1 BNZ         0.0618
      8 H2        -10.7603   -8.4609   33.2707 H         1 BNZ         0.0618
      9 H3         -8.5580   -7.3226   33.3707 H         1 BNZ         0.0618
     10 H4         -6.8798   -7.6186   31.5739 H         1 BNZ         0.0618
     11 H5         -7.4244   -9.0973   29.6481 H         1 BNZ         0.0618
     12 H6         -9.5160  -10.4163   29.6501 H         1 BNZ         0.0618
@<TRIPOS>BOND
     1    1    2 ar 
     2    1    6 ar 
     3    2    3 ar 
     4    3    4 ar 
     5    4    5 ar 
     6    5    6 ar 
     7    1    7 1  
     8    2    8 1  
     9    3    9 1  
    10    4   10 1  
    11    5   11 1  
    12    6   12 1  
@<TRIPOS>SUBSTRUCTURE
     1 BNZ         1

