### 
### Created by X-TOOL on Mon Sep 10 21:12:47 2018
### 

@<TRIPOS>MOLECULE
1swk_ligand
   31    32     1     0     0
SMALL
GAST_HUCK


@<TRIPOS>ATOM
      1 C11        17.5800   19.2980   31.5830 C.2       1 BTN         0.0348
      2 O11        18.3440   20.1310   31.0260 O.co2     1 BTN        -0.5690
      3 O12        16.3820   19.1300   31.2620 O.co2     1 BTN        -0.5690
      4 C10        18.2140   18.4710   32.6480 C.3       1 BTN         0.0002
      5 C9         19.6750   18.1690   32.2560 C.3       1 BTN        -0.0414
      6 C8         19.6780   17.0250   31.2290 C.3       1 BTN        -0.0505
      7 C7         21.1010   16.7010   30.6990 C.3       1 BTN        -0.0389
      8 C2         21.1970   15.6630   29.6050 C.3       1 BTN         0.0302
      9 S1         20.4740   14.0040   29.9520 S.3       1 BTN        -0.1527
     10 C6         21.1850   13.4210   28.3850 C.3       1 BTN         0.0190
     11 C5         22.5740   14.0190   28.2790 C.3       1 BTN         0.0750
     12 N1         23.6050   13.2520   28.9340 N.am      1 BTN        -0.2671
     13 C3         24.1530   13.9150   29.9720 C.2       1 BTN         0.2580
     14 O3         25.0690   13.4980   30.7110 O.2       1 BTN        -0.4008
     15 N2         23.5880   15.1410   30.0730 N.am      1 BTN        -0.2668
     16 C4         22.5750   15.3580   29.0520 C.3       1 BTN         0.0775
     17 H1         17.6605   17.5269   32.7587 H         1 BTN         0.0430
     18 H2         18.1952   19.0209   33.6005 H         1 BTN         0.0430
     19 H3         20.2440   17.8682   33.1481 H         1 BTN         0.0283
     20 H4         20.1335   19.0658   31.8138 H         1 BTN         0.0283
     21 H5         19.0428   17.3135   30.3786 H         1 BTN         0.0267
     22 H6         19.2658   16.1232   31.7052 H         1 BTN         0.0267
     23 H7         21.7007   16.3452   31.5497 H         1 BTN         0.0277
     24 H8         21.5331   17.6352   30.3110 H         1 BTN         0.0277
     25 H9         20.6146   16.0926   28.7766 H         1 BTN         0.0435
     26 H10        20.5642   13.7556   27.5408 H         1 BTN         0.0399
     27 H11        21.2454   12.3227   28.3830 H         1 BTN         0.0399
     28 H12        22.8268   14.1653   27.2185 H         1 BTN         0.0584
     29 H13        23.8816   12.3337   28.6506 H         1 BTN         0.1849
     30 H14        23.8373   15.8168   30.7667 H         1 BTN         0.1849
     31 H15        22.8765   16.1858   28.3934 H         1 BTN         0.0587
@<TRIPOS>BOND
     1    1    4 1  
     2    1    3 ar 
     3    1    2 ar 
     4    4    5 1  
     5    5    6 1  
     6    6    7 1  
     7    7    8 1  
     8    8   16 1  
     9    8    9 1  
    10    9   10 1  
    11   10   11 1  
    12   11   16 1  
    13   11   12 1  
    14   12   13 am 
    15   13   15 am 
    16   13   14 2  
    17   15   16 1  
    18    4   17 1  
    19    4   18 1  
    20    5   19 1  
    21    5   20 1  
    22    6   21 1  
    23    6   22 1  
    24    7   23 1  
    25    7   24 1  
    26    8   25 1  
    27   10   26 1  
    28   10   27 1  
    29   11   28 1  
    30   12   29 1  
    31   15   30 1  
    32   16   31 1  
@<TRIPOS>SUBSTRUCTURE
     1 BTN         1

