### 
### Created by X-TOOL on Mon Sep 10 21:12:47 2018
### 

@<TRIPOS>MOLECULE
1swn_ligand
   31    32     1     0     0
SMALL
GAST_HUCK


@<TRIPOS>ATOM
      1 C11        16.5220    3.8650   29.4730 C.2       1 BTN         0.0348
      2 O11        15.5270    3.7200   30.2310 O.co2     1 BTN        -0.5690
      3 O12        17.1520    2.8740   29.0130 O.co2     1 BTN        -0.5690
      4 C10        16.9350    5.2480   29.1350 C.3       1 BTN         0.0002
      5 C9         15.7510    6.2040   28.9590 C.3       1 BTN        -0.0414
      6 C8         15.1620    6.0920   27.5570 C.3       1 BTN        -0.0505
      7 C7         13.9900    7.0720   27.2860 C.3       1 BTN        -0.0389
      8 C2         13.2860    6.9630   25.9530 C.3       1 BTN         0.0302
      9 S1         14.2620    7.4620   24.4820 S.3       1 BTN        -0.1527
     10 C6         12.7670    7.2340   23.4570 C.3       1 BTN         0.0190
     11 C5         11.6080    7.7930   24.2580 C.3       1 BTN         0.0750
     12 N1         11.4100    9.2220   24.1050 N.am      1 BTN        -0.2671
     13 C3         11.5930    9.8920   25.2510 C.2       1 BTN         0.2580
     14 O3         11.4890   11.1330   25.4380 O.2       1 BTN        -0.4008
     15 N2         11.9020    9.0120   26.2320 N.am      1 BTN        -0.2668
     16 C4         11.9420    7.6410   25.7600 C.3       1 BTN         0.0775
     17 H1         17.5068    5.2227   28.1956 H         1 BTN         0.0430
     18 H2         17.5754    5.6295   29.9439 H         1 BTN         0.0430
     19 H3         16.0944    7.2360   29.1235 H         1 BTN         0.0283
     20 H4         14.9741    5.9541   29.6965 H         1 BTN         0.0283
     21 H5         14.7937    5.0650   27.4173 H         1 BTN         0.0267
     22 H6         15.9604    6.2975   26.8287 H         1 BTN         0.0267
     23 H7         14.3893    8.0939   27.3656 H         1 BTN         0.0277
     24 H8         13.2366    6.9105   28.0711 H         1 BTN         0.0277
     25 H9         13.0947    5.8847   25.8494 H         1 BTN         0.0435
     26 H10        12.6065    6.1654   23.2511 H         1 BTN         0.0399
     27 H11        12.8705    7.7790   22.5071 H         1 BTN         0.0399
     28 H12        10.6883    7.2511   23.9924 H         1 BTN         0.0584
     29 H13        11.1641    9.6589   23.2397 H         1 BTN         0.1849
     30 H14        12.0830    9.2780   27.1788 H         1 BTN         0.1849
     31 H15        11.1733    7.0427   26.2709 H         1 BTN         0.0587
@<TRIPOS>BOND
     1    1    4 1  
     2    1    3 ar 
     3    1    2 ar 
     4    4    5 1  
     5    5    6 1  
     6    6    7 1  
     7    7    8 1  
     8    8   16 1  
     9    8    9 1  
    10    9   10 1  
    11   10   11 1  
    12   11   16 1  
    13   11   12 1  
    14   12   13 am 
    15   13   15 am 
    16   13   14 2  
    17   15   16 1  
    18    4   17 1  
    19    4   18 1  
    20    5   19 1  
    21    5   20 1  
    22    6   21 1  
    23    6   22 1  
    24    7   23 1  
    25    7   24 1  
    26    8   25 1  
    27   10   26 1  
    28   10   27 1  
    29   11   28 1  
    30   12   29 1  
    31   15   30 1  
    32   16   31 1  
@<TRIPOS>SUBSTRUCTURE
     1 BTN         1

