### 
### Created by X-TOOL on Mon Sep 10 21:12:47 2018
### 

@<TRIPOS>MOLECULE
1swp_ligand
   31    32     1     0     0
SMALL
GAST_HUCK


@<TRIPOS>ATOM
      1 C11         7.5200  -16.4160   24.7670 C.2       1 BTN         0.0348
      2 O11         7.1730  -15.2290   25.0060 O.co2     1 BTN        -0.5690
      3 O12         6.7380  -17.2320   24.2110 O.co2     1 BTN        -0.5690
      4 C10         8.9020  -16.7900   25.1610 C.3       1 BTN         0.0002
      5 C9          9.7040  -15.5770   25.6530 C.3       1 BTN        -0.0414
      6 C8         10.6630  -15.0820   24.5850 C.3       1 BTN        -0.0505
      7 C7         11.2170  -13.6510   24.8280 C.3       1 BTN        -0.0389
      8 C2         12.1150  -13.1040   23.7460 C.3       1 BTN         0.0302
      9 S1         13.3140  -14.2770   23.0230 S.3       1 BTN        -0.1527
     10 C6         13.9890  -12.9400   21.9900 C.3       1 BTN         0.0190
     11 C5         14.0260  -11.7100   22.8730 C.3       1 BTN         0.0750
     12 N1         15.2420  -11.5890   23.6570 N.am      1 BTN        -0.2671
     13 C3         14.9960  -11.6340   24.9710 C.2       1 BTN         0.2580
     14 O3         15.8520  -11.5300   25.8720 O.2       1 BTN        -0.4008
     15 N2         13.6660  -11.7790   25.1870 N.am      1 BTN        -0.2668
     16 C4         12.9140  -11.8360   23.9460 C.3       1 BTN         0.0775
     17 H1          9.4144  -17.2261   24.2908 H         1 BTN         0.0430
     18 H2          8.8524  -17.5351   25.9687 H         1 BTN         0.0430
     19 H3         10.2789  -15.8651   26.5455 H         1 BTN         0.0283
     20 H4          9.0064  -14.7669   25.9119 H         1 BTN         0.0283
     21 H5         10.1345  -15.0863   23.6203 H         1 BTN         0.0267
     22 H6         11.5147  -15.7767   24.5396 H         1 BTN         0.0267
     23 H7         11.7897  -13.6653   25.7671 H         1 BTN         0.0277
     24 H8         10.3595  -12.9698   24.9317 H         1 BTN         0.0277
     25 H9         11.4036  -12.8649   22.9418 H         1 BTN         0.0435
     26 H10        13.3409  -12.7657   21.1185 H         1 BTN         0.0399
     27 H11        15.0027  -13.1957   21.6478 H         1 BTN         0.0399
     28 H12        13.8827  -10.8134   22.2521 H         1 BTN         0.0584
     29 H13        16.1546  -11.4845   23.2618 H         1 BTN         0.1849
     30 H14        13.2510  -11.8397   26.0948 H         1 BTN         0.1849
     31 H15        12.2229  -10.9821   23.8899 H         1 BTN         0.0587
@<TRIPOS>BOND
     1    1    4 1  
     2    1    3 ar 
     3    1    2 ar 
     4    4    5 1  
     5    5    6 1  
     6    6    7 1  
     7    7    8 1  
     8    8   16 1  
     9    8    9 1  
    10    9   10 1  
    11   10   11 1  
    12   11   16 1  
    13   11   12 1  
    14   12   13 am 
    15   13   15 am 
    16   13   14 2  
    17   15   16 1  
    18    4   17 1  
    19    4   18 1  
    20    5   19 1  
    21    5   20 1  
    22    6   21 1  
    23    6   22 1  
    24    7   23 1  
    25    7   24 1  
    26    8   25 1  
    27   10   26 1  
    28   10   27 1  
    29   11   28 1  
    30   12   29 1  
    31   15   30 1  
    32   16   31 1  
@<TRIPOS>SUBSTRUCTURE
     1 BTN         1

