### 
### Created by X-TOOL on Mon Sep 10 21:12:47 2018
### 

@<TRIPOS>MOLECULE
1swr_ligand
   31    32     1     0     0
SMALL
GAST_HUCK


@<TRIPOS>ATOM
      1 C11         7.4080  -16.0990   24.0450 C.2       1 BTN         0.0348
      2 O11         7.0070  -14.9830   24.4470 O.co2     1 BTN        -0.5690
      3 O12         6.7640  -16.7410   23.1830 O.co2     1 BTN        -0.5690
      4 C10         8.6590  -16.6300   24.6440 C.3       1 BTN         0.0002
      5 C9          9.5830  -15.4990   25.1190 C.3       1 BTN        -0.0414
      6 C8         10.3040  -14.8620   23.9330 C.3       1 BTN        -0.0505
      7 C7         11.1450  -13.6110   24.3200 C.3       1 BTN        -0.0389
      8 C2         11.9520  -12.9880   23.2080 C.3       1 BTN         0.0302
      9 S1         13.1150  -14.1100   22.3480 S.3       1 BTN        -0.1527
     10 C6         13.7500  -12.7120   21.3850 C.3       1 BTN         0.0190
     11 C5         13.8110  -11.5200   22.3220 C.3       1 BTN         0.0750
     12 N1         15.0560  -11.4480   23.0560 N.am      1 BTN        -0.2671
     13 C3         14.8650  -11.5730   24.3750 C.2       1 BTN         0.2580
     14 O3         15.7480  -11.5180   25.2520 O.2       1 BTN        -0.4008
     15 N2         13.5530  -11.7380   24.6300 N.am      1 BTN        -0.2668
     16 C4         12.7470  -11.7210   23.4340 C.3       1 BTN         0.0775
     17 H1          9.1888  -17.2308   23.8901 H         1 BTN         0.0430
     18 H2          8.4013  -17.2653   25.5042 H         1 BTN         0.0430
     19 H3         10.3276  -15.9092   25.8171 H         1 BTN         0.0283
     20 H4          8.9829  -14.7327   25.6315 H         1 BTN         0.0283
     21 H5          9.5521  -14.5600   23.1891 H         1 BTN         0.0267
     22 H6         10.9770  -15.6113   23.4908 H         1 BTN         0.0267
     23 H7         11.8428  -13.9077   25.1169 H         1 BTN         0.0277
     24 H8         10.4538  -12.8461   24.7037 H         1 BTN         0.0277
     25 H9         11.1847  -12.7160   22.4682 H         1 BTN         0.0435
     26 H10        13.0763  -12.4963   20.5426 H         1 BTN         0.0399
     27 H11        14.7547  -12.9428   21.0013 H         1 BTN         0.0399
     28 H12        13.6379  -10.5923   21.7568 H         1 BTN         0.0584
     29 H13        15.9513  -11.3202   22.6292 H         1 BTN         0.1849
     30 H14        13.1781  -11.8592   25.5491 H         1 BTN         0.1849
     31 H15        12.0475  -10.8725   23.4613 H         1 BTN         0.0587
@<TRIPOS>BOND
     1    1    4 1  
     2    1    3 ar 
     3    1    2 ar 
     4    4    5 1  
     5    5    6 1  
     6    6    7 1  
     7    7    8 1  
     8    8   16 1  
     9    8    9 1  
    10    9   10 1  
    11   10   11 1  
    12   11   16 1  
    13   11   12 1  
    14   12   13 am 
    15   13   15 am 
    16   13   14 2  
    17   15   16 1  
    18    4   17 1  
    19    4   18 1  
    20    5   19 1  
    21    5   20 1  
    22    6   21 1  
    23    6   22 1  
    24    7   23 1  
    25    7   24 1  
    26    8   25 1  
    27   10   26 1  
    28   10   27 1  
    29   11   28 1  
    30   12   29 1  
    31   15   30 1  
    32   16   31 1  
@<TRIPOS>SUBSTRUCTURE
     1 BTN         1

