### 
### Created by X-TOOL on Mon Sep 10 21:12:52 2018
### 

@<TRIPOS>MOLECULE
1syh_ligand
   30    31     1     0     0
SMALL
GAST_HUCK


@<TRIPOS>ATOM
      1 C1         21.8970   14.2400   24.8080 C.3       1 CPW         0.1169
      2 N1         21.8160   14.3210   23.3530 N.am      1 CPW        -0.1859
      3 C2         22.8650   15.0780   22.6130 C.2       1 CPW         0.3247
      4 N2         22.8760   14.9850   21.2790 N.am      1 CPW        -0.1893
      5 C3         20.8290   13.6450   22.6210 C.2       1 CPW         0.0683
      6 O1         23.6870   15.7320   23.2890 O.2       1 CPW        -0.3844
      7 C4         20.8270   13.6530   21.2500 C.2       1 CPW         0.0179
      8 C5         21.9390   14.3130   20.5340 C.2       1 CPW         0.1793
      9 O2         22.0150   14.2380   19.3010 O.2       1 CPW        -0.4179
     10 C6         19.6900   12.8090   23.1870 C.3       1 CPW         0.0101
     11 C7         19.0260   12.1900   21.9160 C.3       1 CPW        -0.0380
     12 C8         19.6330   12.9380   20.6790 C.3       1 CPW        -0.0372
     13 C9         23.0830   13.3710   25.2740 C.3       1 CPW         0.0556
     14 C10        23.2920   13.6760   26.7820 C.2       1 CPW         0.0871
     15 O3         23.5480   14.8670   27.1120 O.co2     1 CPW        -0.5642
     16 O4         23.2080   12.6850   27.5730 O.co2     1 CPW        -0.5642
     17 N3         22.7700   11.9280   24.9570 N.4       1 CPW         0.2346
     18 H1         20.9638   13.8020   25.1917 H         1 CPW         0.0680
     19 H2         22.0197   15.2550   25.2138 H         1 CPW         0.0680
     20 H3         23.6207   15.4377   20.7886 H         1 CPW         0.2251
     21 H4         18.9753   13.4390   23.7367 H         1 CPW         0.0486
     22 H5         20.0732   12.0221   23.8533 H         1 CPW         0.0486
     23 H6         17.9361   12.3352   21.9491 H         1 CPW         0.0301
     24 H7         19.2511   11.1149   21.8564 H         1 CPW         0.0301
     25 H8         19.9381   12.2245   19.8994 H         1 CPW         0.0299
     26 H9         18.9105   13.6533   20.2591 H         1 CPW         0.0299
     27 H10        23.9945   13.6552   24.7277 H         1 CPW         0.1051
     28 H11        23.5360   11.3447   25.2554 H         1 CPW         0.2011
     29 H12        22.6356   11.8237   23.9635 H         1 CPW         0.2011
     30 H13        21.9296   11.6524   25.4406 H         1 CPW         0.2011
@<TRIPOS>BOND
     1    1    2 1  
     2    1   13 1  
     3    2    3 am 
     4    2    5 1  
     5    3    4 am 
     6    3    6 2  
     7    4    8 am 
     8    5    7 2  
     9    5   10 1  
    10    7    8 1  
    11    7   12 1  
    12    8    9 2  
    13   10   11 1  
    14   11   12 1  
    15   13   14 1  
    16   13   17 1  
    17   14   15 ar 
    18   14   16 ar 
    19    1   18 1  
    20    1   19 1  
    21    4   20 1  
    22   10   21 1  
    23   10   22 1  
    24   11   23 1  
    25   11   24 1  
    26   12   25 1  
    27   12   26 1  
    28   13   27 1  
    29   17   28 1  
    30   17   29 1  
    31   17   30 1  
@<TRIPOS>SUBSTRUCTURE
     1 CPW         1

