### 
### Created by X-TOOL on Mon Sep 10 21:12:52 2018
### 

@<TRIPOS>MOLECULE
1szm_ligand
   60    65     1     0     0
SMALL
GAST_HUCK


@<TRIPOS>ATOM
      1 CBD        52.8760   35.7190   52.0040 C.3       1 BI4        -0.0428
      2 NBC        52.6130   34.5400   51.1430 N.4       1 BI4         0.2353
      3 CBG        51.2060   34.0390   51.1440 C.3       1 BI4        -0.0317
      4 CBF        50.7120   34.1780   49.6960 C.3       1 BI4        -0.0074
      5 CBE        51.9680   34.2280   48.8180 C.3       1 BI4        -0.0048
      6 CBB        53.1370   34.6060   49.7490 C.3       1 BI4        -0.0184
      7 CBA        53.8400   35.9220   49.3600 C.3       1 BI4         0.0173
      8 CAY        54.4350   35.9360   47.9350 C.3       1 BI4         0.0589
      9 NAH        53.9720   37.1860   47.3260 N.pl3     1 BI4        -0.2591
     10 CAW        52.7580   37.3660   46.6510 C.2       1 BI4         0.0421
     11 CAE        54.6140   38.4480   47.3360 C.ar      1 BI4         0.0710
     12 CAF        55.8480   38.7950   47.9020 C.ar      1 BI4        -0.0411
     13 CAA        56.2760   40.1170   47.7660 C.ar      1 BI4        -0.0750
     14 CAB        55.4680   41.0620   47.0890 C.ar      1 BI4        -0.0775
     15 CAC        54.2580   40.6860   46.5490 C.ar      1 BI4        -0.0722
     16 CAD        53.8150   39.3620   46.6630 C.ar      1 BI4        -0.0132
     17 CAG        52.6340   38.6680   46.2220 C.2       1 BI4        -0.0050
     18 CAI        51.5480   39.0500   45.3150 C.2       1 BI4         0.0442
     19 CAT        51.7510   39.7230   44.0330 C.2       1 BI4         0.2236
     20 OAZ        52.8100   40.1270   43.5370 O.2       1 BI4        -0.3720
     21 NAU        50.4970   39.8680   43.3690 N.am      1 BI4        -0.2037
     22 CAV        49.5440   39.2690   44.2510 C.2       1 BI4         0.2236
     23 OAX        48.3440   39.2310   43.9710 O.2       1 BI4        -0.3720
     24 CAJ        50.2000   38.7710   45.4560 C.2       1 BI4         0.0442
     25 CAK        49.4490   38.0950   46.5400 C.2       1 BI4        -0.0052
     26 CAM        49.6990   38.0210   47.9770 C.ar      1 BI4        -0.0134
     27 CAP        50.7370   38.4940   48.8320 C.ar      1 BI4        -0.0722
     28 CAQ        50.6920   38.2160   50.2020 C.ar      1 BI4        -0.0775
     29 CAR        49.6250   37.4770   50.7580 C.ar      1 BI4        -0.0750
     30 CAS        48.5850   37.0110   49.9470 C.ar      1 BI4        -0.0413
     31 CAN        48.6540   37.2980   48.5730 C.ar      1 BI4         0.0686
     32 NAO        47.7350   36.9300   47.5740 N.pl3     1 BI4        -0.2735
     33 CAL        48.2550   37.4190   46.3450 C.2       1 BI4         0.0393
     34 H1         52.4424   35.5492   53.0006 H         1 BI4         0.0778
     35 H2         52.4190   36.6120   51.5526 H         1 BI4         0.0778
     36 H3         53.9616   35.8701   52.0973 H         1 BI4         0.0778
     37 H4         53.1469   33.8050   51.5799 H         1 BI4         0.2033
     38 H5         50.5844   34.6438   51.8206 H         1 BI4         0.0814
     39 H6         51.1744   32.9859   51.4601 H         1 BI4         0.0814
     40 H7         50.1283   35.1031   49.5794 H         1 BI4         0.0319
     41 H8         50.0889   33.3142   49.4212 H         1 BI4         0.0319
     42 H9         51.8503   34.9853   48.0289 H         1 BI4         0.0322
     43 H10        52.1503   33.2452   48.3588 H         1 BI4         0.0322
     44 H11        53.9015   33.8208   49.6542 H         1 BI4         0.0852
     45 H12        54.6572   36.0988   50.0748 H         1 BI4         0.0347
     46 H13        53.1059   36.7379   49.4333 H         1 BI4         0.0347
     47 H14        54.0729   35.0715   47.3593 H         1 BI4         0.0609
     48 H15        55.5339   35.9139   47.9777 H         1 BI4         0.0609
     49 H16        52.0163   36.5854   46.4884 H         1 BI4         0.1003
     50 H17        56.4497   38.0622   48.4274 H         1 BI4         0.0550
     51 H18        57.2305   40.4209   48.1803 H         1 BI4         0.0540
     52 H19        55.8039   42.0884   46.9950 H         1 BI4         0.0519
     53 H20        53.6461   41.4175   46.0338 H         1 BI4         0.0549
     54 H21        50.3226   40.2948   42.4816 H         1 BI4         0.2196
     55 H22        51.5596   39.0680   48.4211 H         1 BI4         0.0549
     56 H23        51.4875   38.5729   50.8461 H         1 BI4         0.0519
     57 H24        49.6117   37.2692   51.8218 H         1 BI4         0.0540
     58 H25        47.7564   36.4493   50.3629 H         1 BI4         0.0550
     59 H26        46.8570   36.4082   47.7070 H         1 BI4         0.2306
     60 H27        47.7774   37.2805   45.3762 H         1 BI4         0.1001
@<TRIPOS>BOND
     1    1    2 1  
     2    2    3 1  
     3    2    6 1  
     4    3    4 1  
     5    4    5 1  
     6    5    6 1  
     7    6    7 1  
     8    7    8 1  
     9    8    9 1  
    10    9   10 1  
    11    9   11 1  
    12   10   17 2  
    13   11   12 ar 
    14   11   16 ar 
    15   12   13 ar 
    16   13   14 ar 
    17   14   15 ar 
    18   15   16 ar 
    19   16   17 1  
    20   17   18 1  
    21   18   19 1  
    22   18   24 2  
    23   19   20 2  
    24   19   21 am 
    25   21   22 am 
    26   22   23 2  
    27   22   24 1  
    28   24   25 1  
    29   25   26 1  
    30   25   33 2  
    31   26   27 ar 
    32   26   31 ar 
    33   27   28 ar 
    34   28   29 ar 
    35   29   30 ar 
    36   30   31 ar 
    37   31   32 1  
    38   32   33 1  
    39    1   34 1  
    40    1   35 1  
    41    1   36 1  
    42    2   37 1  
    43    3   38 1  
    44    3   39 1  
    45    4   40 1  
    46    4   41 1  
    47    5   42 1  
    48    5   43 1  
    49    6   44 1  
    50    7   45 1  
    51    7   46 1  
    52    8   47 1  
    53    8   48 1  
    54   10   49 1  
    55   12   50 1  
    56   13   51 1  
    57   14   52 1  
    58   15   53 1  
    59   21   54 1  
    60   27   55 1  
    61   28   56 1  
    62   29   57 1  
    63   30   58 1  
    64   32   59 1  
    65   33   60 1  
@<TRIPOS>SUBSTRUCTURE
     1 BI4         1

