### 
### Created by X-TOOL on Mon Sep 10 21:12:53 2018
### 

@<TRIPOS>MOLECULE
1t13_ligand
   35    35     1     0     0
SMALL
GAST_HUCK


@<TRIPOS>ATOM
      1 N1         80.7780   56.2860    6.5360 N.am      1 INI        -0.0564
      2 C2         81.6870   55.3100    6.9100 C.2       1 INI         0.4198
      3 O2         81.4210   54.1770    6.5390 O.2       1 INI        -0.3298
      4 N3         82.7780   55.7090    7.6420 N.am      1 INI        -0.1255
      5 C4         83.0390   57.0190    8.0430 C.2       1 INI         0.4367
      6 O4         84.1070   57.1540    8.7100 O.2       1 INI        -0.2605
      7 C5         81.9940   58.1150    7.6180 C.2       1 INI         0.4539
      8 N5         82.2370   59.4850    8.0290 N.2       1 INI        -0.0328
      9 O51        83.1930   59.7750    8.6720 O.2       1 INI        -0.4067
     10 O52        81.4400   60.3440    7.7090 O.2       1 INI        -0.4067
     11 C6         80.8410   57.6550    6.8270 C.2       1 INI         0.4676
     12 N7         79.7740   58.4300    6.3100 N.pl3     1 INI        -0.1877
     13 C8         78.5210   58.3550    7.1060 C.3       1 INI         0.0885
     14 C9         77.3870   57.4540    6.4890 C.3       1 INI         0.1094
     15 O9         77.9770   56.1810    6.4580 O.3       1 INI        -0.3866
     16 C10        76.8640   57.6850    4.9830 C.3       1 INI         0.1114
     17 O10        77.9240   57.6180    4.0890 O.3       1 INI        -0.3865
     18 C11        76.0550   59.1140    4.5900 C.3       1 INI         0.1065
     19 O11        76.0540   59.7730    5.8930 O.3       1 INI        -0.3869
     20 C12        74.5130   59.2770    4.2540 C.3       1 INI         0.0727
     21 O12        73.8530   58.3760    5.0860 O.3       1 INI        -0.3924
     22 H1         79.9912   55.9802    5.9999 H         1 INI         0.3499
     23 H2         83.4368   55.0054    7.9084 H         1 INI         0.2316
     24 H3         79.8592   58.9976    5.4547 H         1 INI         0.2364
     25 H4         78.1243   59.3754    7.2129 H         1 INI         0.0621
     26 H5         78.7722   57.9533    8.0987 H         1 INI         0.0621
     27 H6         76.5167   57.4858    7.1610 H         1 INI         0.0646
     28 H7         78.7574   56.2080    5.9170 H         1 INI         0.2100
     29 H8         76.1706   56.8570    4.7744 H         1 INI         0.0647
     30 H9         78.3330   56.7625    4.1480 H         1 INI         0.2100
     31 H10        76.6377   59.6367    3.8172 H         1 INI         0.0643
     32 H11        75.6179   60.6139    5.8210 H         1 INI         0.2100
     33 H12        74.3221   59.0356    3.1979 H         1 INI         0.0584
     34 H13        74.1811   60.3051    4.4609 H         1 INI         0.0584
     35 H14        74.1573   57.4952    4.9017 H         1 INI         0.2095
@<TRIPOS>BOND
     1    1    2 am 
     2    1   11 am 
     3    2    3 2  
     4    2    4 am 
     5    4    5 am 
     6    5    6 2  
     7    5    7 1  
     8    7    8 1  
     9    7   11 2  
    10    8    9 2  
    11    8   10 2  
    12   11   12 1  
    13   12   13 1  
    14   13   14 1  
    15   14   15 1  
    16   14   16 1  
    17   16   17 1  
    18   16   18 1  
    19   18   19 1  
    20   18   20 1  
    21   20   21 1  
    22    1   22 1  
    23    4   23 1  
    24   12   24 1  
    25   13   25 1  
    26   13   26 1  
    27   14   27 1  
    28   15   28 1  
    29   16   29 1  
    30   17   30 1  
    31   18   31 1  
    32   19   32 1  
    33   20   33 1  
    34   20   34 1  
    35   21   35 1  
@<TRIPOS>SUBSTRUCTURE
     1 INI         1

