### 
### Created by X-TOOL on Mon Sep 10 21:12:51 2018
### 

@<TRIPOS>MOLECULE
1t37_ligand
   85    85     1     0     0
SMALL
GAST_HUCK


@<TRIPOS>ATOM
      1 N          29.0140   27.5360  -10.3920 N.4       1 LEU         0.2379
      2 CA         29.5320   28.6850  -11.1740 C.3       1 LEU         0.0652
      3 C          30.1780   29.7670  -10.3280 C.2       1 LEU         0.2267
      4 O          30.8620   30.6180  -10.8660 O.2       1 LEU        -0.3907
      5 CB         28.4140   29.3200  -12.0390 C.3       1 LEU         0.0102
      6 CG         27.0930   29.7320  -11.3800 C.3       1 LEU        -0.0394
      7 CD1        26.9870   31.2490  -11.2440 C.3       1 LEU        -0.0623
      8 CD2        25.9470   29.2180  -12.2490 C.3       1 LEU        -0.0623
      9 N          30.0410   29.7390   -9.0080 N.am      1 ALA        -0.2613
     10 CA         30.6220   30.8610   -8.2750 C.3       1 ALA         0.1283
     11 C          31.4450   30.6620   -6.9880 C.2       1 ALA         0.2036
     12 O          31.2900   29.7120   -6.2260 O.2       1 ALA        -0.3944
     13 CB         29.5560   31.8990   -8.0480 C.3       1 ALA        -0.0244
     14 N          32.3310   31.6440   -6.8420 N.am      1 ILE        -0.2635
     15 CA         33.3670   31.9200   -5.8390 C.3       1 ILE         0.1335
     16 C          33.3460   31.6480   -4.3210 C.2       1 ILE         0.2043
     17 O          32.3190   31.5110   -3.6690 O.2       1 ILE        -0.3944
     18 CB         33.7720   33.4100   -5.9810 C.3       1 ILE        -0.0037
     19 CG1        33.9450   33.7660   -7.4560 C.3       1 ILE        -0.0491
     20 CG2        35.0430   33.6730   -5.2640 C.3       1 ILE        -0.0582
     21 CD1        32.7050   34.4270   -8.0740 C.3       1 ILE        -0.0648
     22 N          34.5700   31.5980   -3.8050 N.am      1 TYR        -0.2621
     23 CA         34.9500   31.4390   -2.4040 C.3       1 TYR         0.1389
     24 C          35.7120   32.7580   -2.3320 C.2       1 TYR         0.2039
     25 O          35.1180   33.8150   -2.3110 O.2       1 TYR        -0.3944
     26 CB         35.9550   30.2820   -2.2160 C.3       1 TYR         0.0163
     27 CG         35.7090   29.0890   -3.1180 C.ar      1 TYR        -0.0493
     28 CD1        35.3400   29.2870   -4.4440 C.ar      1 TYR        -0.0685
     29 CD2        35.8400   27.7730   -2.6650 C.ar      1 TYR        -0.0685
     30 CE1        35.0990   28.2500   -5.3070 C.ar      1 TYR        -0.0398
     31 CE2        35.5990   26.6960   -3.5470 C.ar      1 TYR        -0.0398
     32 CZ         35.2250   26.9600   -4.8760 C.ar      1 TYR         0.0805
     33 OH         34.9890   25.9640   -5.7960 O.3       1 TYR        -0.3376
     34 N          37.0360   32.7090   -2.3660 N.am      1 SER        -0.2774
     35 CA         37.8000   33.9560   -2.3610 C.3       1 SER         0.0881
     36 C          39.1790   33.8700   -3.0350 C.3       1 SER         0.0693
     37 O          39.2800   34.4980   -4.1140 O.3       1 SER        -0.3927
     38 CB         37.9370   34.5130   -0.9270 C.3       1 SER         0.0693
     39 OG         38.3490   33.5250    0.0040 O.3       1 SER        -0.3927
     40 H1         28.6017   26.8621  -11.0180 H         1 LEU         0.2015
     41 H2         28.3164   27.8601   -9.7405 H         1 LEU         0.2015
     42 H3         29.7718   27.1049   -9.8861 H         1 LEU         0.2015
     43 H4         30.3042   28.2916  -11.8515 H         1 LEU         0.1098
     44 H5         28.1659   28.5925  -12.8258 H         1 LEU         0.0348
     45 H6         28.8390   30.2252  -12.4973 H         1 LEU         0.0348
     46 H7         27.0303   29.2782  -10.3799 H         1 LEU         0.0299
     47 H8         26.0296   31.5085  -10.7686 H         1 LEU         0.0232
     48 H9         27.0384   31.7110  -12.2409 H         1 LEU         0.0232
     49 H10        27.8165   31.6205  -10.6245 H         1 LEU         0.0232
     50 H11        26.0231   28.1250  -12.3472 H         1 LEU         0.0232
     51 H12        26.0062   29.6806  -13.2452 H         1 LEU         0.0232
     52 H13        24.9864   29.4780  -11.7805 H         1 LEU         0.0232
     53 H14        29.5669   28.9921   -8.5418 H         1 ALA         0.1884
     54 H15        31.3406   31.2999   -8.9828 H         1 ALA         0.0797
     55 H16        29.9836   32.7491   -7.4962 H         1 ALA         0.0277
     56 H17        28.7341   31.4590   -7.4641 H         1 ALA         0.0277
     57 H18        29.1712   32.2476   -9.0177 H         1 ALA         0.0277
     58 H19        32.2810   32.3353   -7.5628 H         1 ILE         0.1883
     59 H20        34.2133   31.3116   -6.1906 H         1 ILE         0.0803
     60 H21        32.9790   34.0377   -5.5486 H         1 ILE         0.0345
     61 H22        34.1627   32.8434   -8.0140 H         1 ILE         0.0267
     62 H23        34.7932   34.4601   -7.5499 H         1 ILE         0.0267
     63 H24        34.9236   33.4181   -4.2006 H         1 ILE         0.0235
     64 H25        35.3040   34.7374   -5.3588 H         1 ILE         0.0235
     65 H26        35.8442   33.0587   -5.7006 H         1 ILE         0.0235
     66 H27        32.9000   34.6548   -9.1323 H         1 ILE         0.0230
     67 H28        32.4785   35.3583   -7.5342 H         1 ILE         0.0230
     68 H29        31.8480   33.7416   -7.9984 H         1 ILE         0.0230
     69 H30        35.3239   31.6793   -4.4569 H         1 TYR         0.1885
     70 H31        34.1001   31.3542   -1.7108 H         1 TYR         0.0821
     71 H32        35.8972   29.9418   -1.1715 H         1 TYR         0.0453
     72 H33        36.9650   30.6663   -2.4211 H         1 TYR         0.0453
     73 H34        35.2389   30.3024   -4.8098 H         1 TYR         0.0530
     74 H35        36.1263   27.5790   -1.6376 H         1 TYR         0.0530
     75 H36        34.8085   28.4535   -6.3313 H         1 TYR         0.0525
     76 H37        35.7017   25.6737   -3.2014 H         1 TYR         0.0525
     77 H38        34.7503   26.3538   -6.6288 H         1 TYR         0.2458
     78 H39        37.5080   31.8279   -2.3948 H         1 SER         0.1856
     79 H40        37.2126   34.6835   -2.9404 H         1 SER         0.0601
     80 H41        39.3957   32.8103   -3.2352 H         1 SER         0.0581
     81 H42        39.9267   34.2713   -2.3351 H         1 SER         0.0581
     82 H43        39.1084   35.4196   -3.9600 H         1 SER         0.2095
     83 H44        36.9625   34.9121   -0.6092 H         1 SER         0.0581
     84 H45        38.6808   35.3234   -0.9332 H         1 SER         0.0581
     85 H46        37.7094   32.8229    0.0228 H         1 SER         0.2095
@<TRIPOS>BOND
     1    1    2 1  
     2    2    3 1  
     3    2    5 1  
     4    3    4 2  
     5    3    9 am 
     6    5    6 1  
     7    6    7 1  
     8    6    8 1  
     9    9   10 1  
    10   10   11 1  
    11   10   13 1  
    12   11   12 2  
    13   11   14 am 
    14   14   15 1  
    15   15   16 1  
    16   15   18 1  
    17   16   17 2  
    18   16   22 am 
    19   18   19 1  
    20   18   20 1  
    21   19   21 1  
    22   22   23 1  
    23   23   24 1  
    24   23   26 1  
    25   24   25 2  
    26   24   34 am 
    27   26   27 1  
    28   27   28 ar 
    29   27   29 ar 
    30   28   30 ar 
    31   29   31 ar 
    32   30   32 ar 
    33   31   32 ar 
    34   32   33 1  
    35   34   35 1  
    36   35   36 1  
    37   35   38 1  
    38   36   37 1  
    39   38   39 1  
    40    1   40 1  
    41    1   41 1  
    42    1   42 1  
    43    2   43 1  
    44    5   44 1  
    45    5   45 1  
    46    6   46 1  
    47    7   47 1  
    48    7   48 1  
    49    7   49 1  
    50    8   50 1  
    51    8   51 1  
    52    8   52 1  
    53    9   53 1  
    54   10   54 1  
    55   13   55 1  
    56   13   56 1  
    57   13   57 1  
    58   14   58 1  
    59   15   59 1  
    60   18   60 1  
    61   19   61 1  
    62   19   62 1  
    63   20   63 1  
    64   20   64 1  
    65   20   65 1  
    66   21   66 1  
    67   21   67 1  
    68   21   68 1  
    69   22   69 1  
    70   23   70 1  
    71   26   71 1  
    72   26   72 1  
    73   28   73 1  
    74   29   74 1  
    75   30   75 1  
    76   31   76 1  
    77   33   77 1  
    78   34   78 1  
    79   35   79 1  
    80   36   80 1  
    81   36   81 1  
    82   37   82 1  
    83   38   83 1  
    84   38   84 1  
    85   39   85 1  
@<TRIPOS>SUBSTRUCTURE
     1 LEU         1

