### 
### Created by X-TOOL on Mon Sep 10 21:12:51 2018
### 

@<TRIPOS>MOLECULE
1t46_ligand
   70    74     1     0     0
SMALL
GAST_HUCK


@<TRIPOS>ATOM
      1 C1         32.6960   24.7000   47.5410 C.ar      1 STI        -0.0301
      2 C6         31.8180   25.4090   46.7190 C.ar      1 STI        -0.0291
      3 C5         30.6070   24.8220   46.3550 C.ar      1 STI         0.0316
      4 C4         30.2890   23.5400   46.7930 C.ar      1 STI         0.0248
      5 N3         31.1560   22.8770   47.5750 N.ar      1 STI        -0.2920
      6 C2         32.3300   23.4240   47.9550 C.ar      1 STI         0.0142
      7 C7         29.6570   25.5420   45.4790 C.ar      1 STI         0.0621
      8 C12        29.9720   26.7830   44.9260 C.ar      1 STI        -0.0153
      9 C11        29.0340   27.3880   44.0930 C.ar      1 STI         0.0146
     10 N10        27.8540   26.7890   43.8490 N.ar      1 STI        -0.2516
     11 C9         27.5660   25.5940   44.4210 C.ar      1 STI         0.2094
     12 N8         28.4650   24.9750   45.2160 N.ar      1 STI        -0.2455
     13 N13        26.4040   24.9540   44.2010 N.pl3     1 STI        -0.2475
     14 C14        25.3470   25.5110   43.5600 C.ar      1 STI         0.0547
     15 C19        24.2990   26.0650   44.2940 C.ar      1 STI        -0.0359
     16 C18        23.2070   26.6100   43.6280 C.ar      1 STI        -0.0821
     17 C17        23.1490   26.6030   42.2330 C.ar      1 STI        -0.0588
     18 C16        24.1950   26.0540   41.4950 C.ar      1 STI         0.0494
     19 C15        25.2830   25.4900   42.1650 C.ar      1 STI        -0.0244
     20 N21        24.0610   26.0500   40.0970 N.am      1 STI        -0.2404
     21 C22        24.9820   25.6240   39.2380 C.2       1 STI         0.2255
     22 C23        24.6520   25.6310   37.7790 C.ar      1 STI         0.0485
     23 C25        25.4430   24.8950   36.8960 C.ar      1 STI        -0.0479
     24 C26        25.1350   24.8970   35.5390 C.ar      1 STI        -0.0494
     25 C27        24.0400   25.6290   35.0810 C.ar      1 STI         0.0061
     26 C28        23.2420   26.3570   35.9610 C.ar      1 STI        -0.0494
     27 C29        23.5530   26.3490   37.3180 C.ar      1 STI        -0.0479
     28 C46        23.7080   25.6150   33.6100 C.3       1 STI         0.0045
     29 N48        23.6120   26.9460   33.0270 N.4       1 STI         0.2553
     30 C53        24.7780   27.8090   33.1870 C.3       1 STI         0.0110
     31 C52        24.4070   29.2250   32.7690 C.3       1 STI         0.0092
     32 N51        23.8580   29.1530   31.4220 N.4       1 STI         0.2405
     33 C54        23.8300   30.4370   30.7290 C.3       1 STI        -0.0427
     34 C50        22.6960   28.3020   31.1910 C.3       1 STI         0.0092
     35 C49        22.9660   26.9000   31.7180 C.3       1 STI         0.0110
     36 O29        26.0670   25.2150   39.5910 O.2       1 STI        -0.3771
     37 C20        24.3250   26.0840   45.8060 C.3       1 STI        -0.0402
     38 H1         33.6404   25.1339   47.8491 H         1 STI         0.0718
     39 H2         32.0744   26.4023   46.3686 H         1 STI         0.0773
     40 H3         29.3500   23.0809   46.5055 H         1 STI         0.0864
     41 H4         32.9990   22.8589   48.5939 H         1 STI         0.0847
     42 H5         30.9203   27.2632   45.1386 H         1 STI         0.0677
     43 H6         29.2558   28.3469   43.6386 H         1 STI         0.0893
     44 H7         26.3116   23.9853   44.5387 H         1 STI         0.2158
     45 H8         22.3931   27.0444   44.1971 H         1 STI         0.0490
     46 H9         22.2898   27.0249   41.7242 H         1 STI         0.0394
     47 H10        26.0848   25.0319   41.5973 H         1 STI         0.0399
     48 H11        23.2031   26.3957   39.7168 H         1 STI         0.2227
     49 H12        26.2897   24.3268   37.2638 H         1 STI         0.0652
     50 H13        25.7431   24.3324   34.8415 H         1 STI         0.0572
     51 H14        22.3919   26.9211   35.5946 H         1 STI         0.0572
     52 H15        22.9375   26.9035   38.0171 H         1 STI         0.0652
     53 H16        22.7430   25.1046   33.4750 H         1 STI         0.0991
     54 H17        24.4947   25.0580   33.0801 H         1 STI         0.0991
     55 H18        22.9265   27.4067   33.6048 H         1 STI         0.2053
     56 H19        25.5991   27.4408   32.5543 H         1 STI         0.0868
     57 H20        25.0969   27.8068   34.2397 H         1 STI         0.0868
     58 H21        25.3012   29.8655   32.7765 H         1 STI         0.0868
     59 H22        23.6558   29.6360   33.4594 H         1 STI         0.0868
     60 H23        24.5801   28.6520   30.9285 H         1 STI         0.2035
     61 H24        23.4046   30.3018   29.7237 H         1 STI         0.0778
     62 H25        24.8538   30.8302   30.6440 H         1 STI         0.0778
     63 H26        23.2105   31.1467   31.2969 H         1 STI         0.0778
     64 H27        22.4895   28.2521   30.1117 H         1 STI         0.0868
     65 H28        21.8247   28.7256   31.7119 H         1 STI         0.0868
     66 H29        22.0120   26.3597   31.8069 H         1 STI         0.0868
     67 H30        23.6226   26.3710   31.0116 H         1 STI         0.0868
     68 H31        25.2543   25.6157   46.1626 H         1 STI         0.0342
     69 H32        23.4606   25.5257   46.1947 H         1 STI         0.0342
     70 H33        24.2792   27.1243   46.1605 H         1 STI         0.0342
@<TRIPOS>BOND
     1    1    2 ar 
     2    1    6 ar 
     3    2    3 ar 
     4    3    4 ar 
     5    3    7 1  
     6    4    5 ar 
     7    5    6 ar 
     8    7    8 ar 
     9    7   12 ar 
    10    8    9 ar 
    11    9   10 ar 
    12   10   11 ar 
    13   11   12 ar 
    14   11   13 1  
    15   13   14 1  
    16   14   15 ar 
    17   14   19 ar 
    18   15   16 ar 
    19   15   37 1  
    20   16   17 ar 
    21   17   18 ar 
    22   18   19 ar 
    23   18   20 1  
    24   20   21 am 
    25   21   22 1  
    26   21   36 2  
    27   22   23 ar 
    28   22   27 ar 
    29   23   24 ar 
    30   24   25 ar 
    31   25   26 ar 
    32   25   28 1  
    33   26   27 ar 
    34   28   29 1  
    35   29   30 1  
    36   29   35 1  
    37   30   31 1  
    38   31   32 1  
    39   32   33 1  
    40   32   34 1  
    41   34   35 1  
    42    1   38 1  
    43    2   39 1  
    44    4   40 1  
    45    6   41 1  
    46    8   42 1  
    47    9   43 1  
    48   13   44 1  
    49   16   45 1  
    50   17   46 1  
    51   19   47 1  
    52   20   48 1  
    53   23   49 1  
    54   24   50 1  
    55   26   51 1  
    56   27   52 1  
    57   28   53 1  
    58   28   54 1  
    59   29   55 1  
    60   30   56 1  
    61   30   57 1  
    62   31   58 1  
    63   31   59 1  
    64   32   60 1  
    65   33   61 1  
    66   33   62 1  
    67   33   63 1  
    68   34   64 1  
    69   34   65 1  
    70   35   66 1  
    71   35   67 1  
    72   37   68 1  
    73   37   69 1  
    74   37   70 1  
@<TRIPOS>SUBSTRUCTURE
     1 STI         1

