### 
### Created by X-TOOL on Mon Sep 10 21:12:51 2018
### 

@<TRIPOS>MOLECULE
1t48_ligand
   45    47     1     0     0
SMALL
GAST_HUCK


@<TRIPOS>ATOM
      1 BR22       48.6060   31.1550   25.9510 Br        1 BB3        -0.0557
      2 C13        50.4400   30.9340   25.6340 C.ar      1 BB3         0.0492
      3 C14        51.2350   30.4560   26.7650 C.ar      1 BB3         0.1133
      4 O20        50.7290   30.2220   27.8890 O.3       1 BB3        -0.3255
      5 C15        52.6640   30.2570   26.5230 C.ar      1 BB3         0.0492
      6 BR21       53.6820   29.6420   27.9680 Br        1 BB3        -0.0557
      7 C16        53.2220   30.5310   25.2820 C.ar      1 BB3        -0.0403
      8 C12        51.0450   31.1900   24.4020 C.ar      1 BB3        -0.0403
      9 C11        52.4220   30.9820   24.2320 C.ar      1 BB3         0.0198
     10 C03        53.0650   31.2630   22.9060 C.2       1 BB3         0.1218
     11 O19        52.5540   32.0930   22.1590 O.2       1 BB3        -0.3985
     12 C9         54.1870   30.6490   22.5100 C.2       1 BB3         0.0479
     13 C8         54.6610   29.4340   22.8460 C.2       1 BB3         0.1324
     14 C17        54.0160   28.4220   23.7550 C.3       1 BB3         0.0229
     15 C18        55.1230   27.8280   24.6190 C.3       1 BB3        -0.0481
     16 C5         55.1950   31.2310   21.5740 C.ar      1 BB3        -0.0033
     17 C6         55.2470   32.4340   20.8940 C.ar      1 BB3        -0.0723
     18 C4         56.2690   30.2560   21.4750 C.ar      1 BB3         0.1286
     19 O7         55.9600   29.1660   22.2390 O.3       1 BB3        -0.2376
     20 C3         57.3860   30.4870   20.7030 C.ar      1 BB3        -0.0069
     21 C2         57.4290   31.7010   20.0190 C.ar      1 BB3         0.0942
     22 C1         56.3890   32.6430   20.1230 C.ar      1 BB3        -0.0531
     23 S01        58.8020   32.0390   19.0210 S.o2      1 BB3         0.0643
     24 O01        59.1930   30.8750   18.2780 O.2       1 BB3        -0.1514
     25 O02        58.4490   33.1340   18.0870 O.2       1 BB3        -0.1514
     26 N01        60.1210   32.5230   20.0110 N.am      1 BB3        -0.2412
     27 C01        59.8570   33.2870   21.2170 C.3       1 BB3         0.0178
     28 C02        61.4860   32.1720   19.6500 C.3       1 BB3         0.0178
     29 H1         50.0630   29.5502   27.8016 H         1 BB3         0.2529
     30 H2         54.2862   30.3937   25.1278 H         1 BB3         0.0693
     31 H3         50.4478   31.5513   23.5726 H         1 BB3         0.0693
     32 H4         53.5363   27.6312   23.1596 H         1 BB3         0.0520
     33 H5         53.2626   28.9109   24.3901 H         1 BB3         0.0520
     34 H6         54.6937   27.0798   25.3016 H         1 BB3         0.0261
     35 H7         55.6001   28.6276   25.2046 H         1 BB3         0.0261
     36 H8         55.8738   27.3479   23.9741 H         1 BB3         0.0261
     37 H9         54.4509   33.1671   20.9566 H         1 BB3         0.0521
     38 H10        58.1895   29.7629   20.6310 H         1 BB3         0.0575
     39 H11        56.4804   33.5754   19.5776 H         1 BB3         0.0540
     40 H12        60.8068   33.5099   21.7251 H         1 BB3         0.0442
     41 H13        59.2110   32.7017   21.8878 H         1 BB3         0.0442
     42 H14        59.3533   34.2283   20.9519 H         1 BB3         0.0442
     43 H15        62.1791   32.5709   20.4053 H         1 BB3         0.0442
     44 H16        61.7276   32.6025   18.6670 H         1 BB3         0.0442
     45 H17        61.5834   31.0773   19.6048 H         1 BB3         0.0442
@<TRIPOS>BOND
     1    1    2 1  
     2    2    3 ar 
     3    2    8 ar 
     4    3    4 1  
     5    3    5 ar 
     6    5    6 1  
     7    5    7 ar 
     8    7    9 ar 
     9    8    9 ar 
    10    9   10 1  
    11   10   11 2  
    12   10   12 1  
    13   12   13 2  
    14   12   16 1  
    15   13   14 1  
    16   13   19 1  
    17   14   15 1  
    18   16   17 ar 
    19   16   18 ar 
    20   17   22 ar 
    21   18   19 1  
    22   18   20 ar 
    23   20   21 ar 
    24   21   22 ar 
    25   21   23 1  
    26   23   24 2  
    27   23   25 2  
    28   23   26 am 
    29   26   27 1  
    30   26   28 1  
    31    4   29 1  
    32    7   30 1  
    33    8   31 1  
    34   14   32 1  
    35   14   33 1  
    36   15   34 1  
    37   15   35 1  
    38   15   36 1  
    39   17   37 1  
    40   20   38 1  
    41   22   39 1  
    42   27   40 1  
    43   27   41 1  
    44   27   42 1  
    45   28   43 1  
    46   28   44 1  
    47   28   45 1  
@<TRIPOS>SUBSTRUCTURE
     1 BB3         1

