### 
### Created by X-TOOL on Mon Sep 10 21:12:51 2018
### 

@<TRIPOS>MOLECULE
1t49_ligand
   54    57     1     0     0
SMALL
GAST_HUCK


@<TRIPOS>ATOM
      1 BR22       48.2310   31.0850   25.3520 Br        1 892        -0.0557
      2 C13        50.0730   30.8090   25.1170 C.ar      1 892         0.0492
      3 C14        50.8270   30.3510   26.2890 C.ar      1 892         0.1133
      4 O20        50.2030   30.1470   27.4770 O.3       1 892        -0.3255
      5 C15        52.2680   30.1190   26.1290 C.ar      1 892         0.0492
      6 BR21       53.2550   29.5300   27.6260 Br        1 892        -0.0557
      7 C16        52.8540   30.3460   24.8880 C.ar      1 892        -0.0403
      8 C12        50.7280   31.0090   23.9050 C.ar      1 892        -0.0403
      9 C11        52.1020   30.7770   23.7900 C.ar      1 892         0.0198
     10 C03        52.7590   31.0090   22.4530 C.2       1 892         0.1218
     11 O19        52.2050   31.7870   21.6820 O.2       1 892        -0.3985
     12 C9         53.9010   30.3970   22.0720 C.2       1 892         0.0479
     13 C8         54.3990   29.2000   22.4460 C.2       1 892         0.1324
     14 C17        53.7990   28.2240   23.4270 C.3       1 892         0.0229
     15 C18        54.8930   27.7140   24.3460 C.3       1 892        -0.0481
     16 C5         54.8840   30.9410   21.0840 C.ar      1 892        -0.0033
     17 C6         54.9290   32.1140   20.3490 C.ar      1 892        -0.0722
     18 C4         55.9480   29.9510   20.9680 C.ar      1 892         0.1286
     19 O7         55.6660   28.8970   21.7820 O.3       1 892        -0.2376
     20 C3         57.0290   30.1380   20.1280 C.ar      1 892        -0.0064
     21 C2         57.0640   31.3220   19.3990 C.ar      1 892         0.0999
     22 C1         56.0390   32.2780   19.5100 C.ar      1 892        -0.0526
     23 S01        58.3950   31.5720   18.3290 S.o2      1 892         0.0837
     24 O01        58.3540   30.5670   17.2680 O.2       1 892        -0.1459
     25 O02        58.2710   32.9100   17.7430 O.2       1 892        -0.1459
     26 N01        59.8900   31.3950   19.1730 N.am      1 892        -0.1881
     27 C02        60.1670   32.0780   20.3060 C.ar      1 892         0.0625
     28 C01        61.0290   31.5140   21.2400 C.ar      1 892        -0.0437
     29 C04        59.6120   33.3340   20.5460 C.ar      1 892        -0.0437
     30 C07        59.9200   34.0180   21.7210 C.ar      1 892        -0.0513
     31 C06        60.7850   33.4460   22.6530 C.ar      1 892         0.0904
     32 C05        61.3390   32.1950   22.4120 C.ar      1 892        -0.0513
     33 S02        61.1870   34.3070   24.1580 S.o2      1 892         0.0582
     34 O05        61.3820   33.3420   25.2250 O.2       1 892        -0.1527
     35 O03        62.4070   35.0710   23.9640 O.2       1 892        -0.1527
     36 N02        59.9120   35.3260   24.5510 N.am      1 892        -0.2627
     37 H1         49.5300   29.4851   27.3703 H         1 892         0.2529
     38 H2         53.9193   30.1850   24.7689 H         1 892         0.0693
     39 H3         50.1671   31.3481   23.0416 H         1 892         0.0693
     40 H4         53.3522   27.3799   22.8813 H         1 892         0.0520
     41 H5         53.0230   28.7283   24.0215 H         1 892         0.0520
     42 H6         54.4645   27.0009   25.0656 H         1 892         0.0261
     43 H7         55.3392   28.5598   24.8895 H         1 892         0.0261
     44 H8         55.6685   27.2114   23.7493 H         1 892         0.0261
     45 H9         54.1489   32.8634   20.4190 H         1 892         0.0521
     46 H10        57.8141   29.3957   20.0411 H         1 892         0.0575
     47 H11        56.1109   33.1839   18.9191 H         1 892         0.0540
     48 H12        60.5762   30.7642   18.8106 H         1 892         0.2162
     49 H13        61.4618   30.5378   21.0534 H         1 892         0.0482
     50 H14        58.9414   33.7785   19.8195 H         1 892         0.0482
     51 H15        59.4873   34.9938   21.9099 H         1 892         0.0591
     52 H16        62.0118   31.7505   23.1364 H         1 892         0.0591
     53 H17        59.9609   35.8941   25.3725 H         1 892         0.1633
     54 H18        59.1036   35.3649   23.9636 H         1 892         0.1633
@<TRIPOS>BOND
     1    1    2 1  
     2    2    3 ar 
     3    2    8 ar 
     4    3    4 1  
     5    3    5 ar 
     6    5    6 1  
     7    5    7 ar 
     8    7    9 ar 
     9    8    9 ar 
    10    9   10 1  
    11   10   11 2  
    12   10   12 1  
    13   12   13 2  
    14   12   16 1  
    15   13   14 1  
    16   13   19 1  
    17   14   15 1  
    18   16   17 ar 
    19   16   18 ar 
    20   17   22 ar 
    21   18   19 1  
    22   18   20 ar 
    23   20   21 ar 
    24   21   22 ar 
    25   21   23 1  
    26   23   24 2  
    27   23   25 2  
    28   23   26 am 
    29   26   27 1  
    30   27   28 ar 
    31   27   29 ar 
    32   28   32 ar 
    33   29   30 ar 
    34   30   31 ar 
    35   31   32 ar 
    36   31   33 1  
    37   33   34 2  
    38   33   35 2  
    39   33   36 am 
    40    4   37 1  
    41    7   38 1  
    42    8   39 1  
    43   14   40 1  
    44   14   41 1  
    45   15   42 1  
    46   15   43 1  
    47   15   44 1  
    48   17   45 1  
    49   20   46 1  
    50   22   47 1  
    51   26   48 1  
    52   28   49 1  
    53   29   50 1  
    54   30   51 1  
    55   32   52 1  
    56   36   53 1  
    57   36   54 1  
@<TRIPOS>SUBSTRUCTURE
     1 892         1

