### 
### Created by X-TOOL on Mon Sep 10 21:12:53 2018
### 

@<TRIPOS>MOLECULE
1t4e_ligand
   46    49     1     0     0
SMALL
GAST_HUCK


@<TRIPOS>ATOM
      1 CL1        46.9900   12.5070   23.9630 Cl        1 DIZ        -0.0769
      2 C1         46.4590   13.0780   25.4790 C.ar      1 DIZ         0.0332
      3 C2         45.4730   14.0890   25.5250 C.ar      1 DIZ        -0.0543
      4 C3         44.9950   14.5530   26.7710 C.ar      1 DIZ        -0.0558
      5 C4         45.5070   14.0040   28.0100 C.ar      1 DIZ        -0.0042
      6 C5         46.5220   12.9920   27.9340 C.ar      1 DIZ        -0.0558
      7 C6         46.9930   12.5320   26.6690 C.ar      1 DIZ        -0.0543
      8 C7         44.9600   14.4310   29.3870 C.3       1 DIZ         0.1344
      9 C8         44.4820   15.9000   29.4790 C.2       1 DIZ         0.0728
     10 O1         45.1280   16.8830   29.1700 O.co2     1 DIZ        -0.5641
     11 O2         43.2240   16.0420   29.9500 O.co2     1 DIZ        -0.5641
     12 N1         43.8710   13.3990   29.7940 N.am      1 DIZ        -0.2151
     13 C9         44.0370   12.7710   31.0370 C.2       1 DIZ         0.2059
     14 O3         44.9980   13.0330   31.7820 O.2       1 DIZ        -0.3925
     15 C10        43.0860   11.7530   31.5240 C.ar      1 DIZ         0.0733
     16 C11        43.6710   10.6720   32.2090 C.ar      1 DIZ        -0.0443
     17 C12        42.8840    9.6360   32.7030 C.ar      1 DIZ        -0.0006
     18 I1         43.8310    8.1200   33.6790 I         1 DIZ        -0.0609
     19 C13        41.4860    9.6330   32.5270 C.ar      1 DIZ        -0.0602
     20 C14        40.8780   10.7200   31.8340 C.ar      1 DIZ        -0.0321
     21 C15        41.6750   11.7920   31.3250 C.ar      1 DIZ         0.0905
     22 N2         40.9860   12.8020   30.6500 N.am      1 DIZ        -0.2238
     23 C16        41.3750   13.4730   29.5120 C.2       1 DIZ         0.2445
     24 O4         40.6240   14.3350   29.0510 O.2       1 DIZ        -0.3777
     25 C17        42.7390   13.1510   28.8060 C.3       1 DIZ         0.1766
     26 C18        42.7140   11.7920   28.0130 C.ar      1 DIZ         0.0022
     27 C19        43.9110   11.0910   27.7240 C.ar      1 DIZ        -0.0551
     28 C20        43.9440    9.9000   26.9940 C.ar      1 DIZ        -0.0541
     29 C21        42.7660    9.3640   26.5180 C.ar      1 DIZ         0.0333
     30 CL2        42.8510    7.9550   25.6170 Cl        1 DIZ        -0.0768
     31 C22        41.5290    9.9890   26.7720 C.ar      1 DIZ        -0.0541
     32 C23        41.5020   11.2040   27.5210 C.ar      1 DIZ        -0.0551
     33 H1         45.0834   14.5085   24.6045 H         1 DIZ         0.0606
     34 H2         44.2374   15.3277   26.8001 H         1 DIZ         0.0561
     35 H3         46.9338   12.5740   28.8455 H         1 DIZ         0.0561
     36 H4         47.7583   11.7659   26.6199 H         1 DIZ         0.0606
     37 H5         45.7871   14.3377   30.1061 H         1 DIZ         0.0892
     38 H6         44.7450   10.6460   32.3533 H         1 DIZ         0.0658
     39 H7         40.8834    8.8182   32.9119 H         1 DIZ         0.0639
     40 H8         39.8034   10.7339   31.6919 H         1 DIZ         0.0523
     41 H9         40.1049   13.0700   31.0396 H         1 DIZ         0.2300
     42 H10        42.8683   13.9162   28.0265 H         1 DIZ         0.0971
     43 H11        44.8474   11.4988   28.0872 H         1 DIZ         0.0562
     44 H12        44.8876    9.4016   26.8035 H         1 DIZ         0.0606
     45 H13        40.6082    9.5521   26.4028 H         1 DIZ         0.0606
     46 H14        40.5530   11.6885   27.7205 H         1 DIZ         0.0562
@<TRIPOS>BOND
     1    1    2 1  
     2    2    3 ar 
     3    2    7 ar 
     4    3    4 ar 
     5    4    5 ar 
     6    5    6 ar 
     7    5    8 1  
     8    6    7 ar 
     9    8    9 1  
    10    8   12 1  
    11    9   10 ar 
    12    9   11 ar 
    13   12   13 am 
    14   12   25 1  
    15   13   14 2  
    16   13   15 1  
    17   15   16 ar 
    18   15   21 ar 
    19   16   17 ar 
    20   17   18 1  
    21   17   19 ar 
    22   19   20 ar 
    23   20   21 ar 
    24   21   22 1  
    25   22   23 am 
    26   23   24 2  
    27   23   25 1  
    28   25   26 1  
    29   26   27 ar 
    30   26   32 ar 
    31   27   28 ar 
    32   28   29 ar 
    33   29   30 1  
    34   29   31 ar 
    35   31   32 ar 
    36    3   33 1  
    37    4   34 1  
    38    6   35 1  
    39    7   36 1  
    40    8   37 1  
    41   16   38 1  
    42   19   39 1  
    43   20   40 1  
    44   22   41 1  
    45   25   42 1  
    46   27   43 1  
    47   28   44 1  
    48   31   45 1  
    49   32   46 1  
@<TRIPOS>SUBSTRUCTURE
     1 DIZ         1

