### 
### Created by X-TOOL on Mon Sep 10 21:12:52 2018
### 

@<TRIPOS>MOLECULE
1t4j_ligand
   60    64     1     0     0
SMALL
GAST_HUCK


@<TRIPOS>ATOM
      1 O36        63.2570   34.3370   23.6600 O.2       1 FRJ        -0.1451
      2 S33        62.0380   33.5910   24.0420 S.o2      1 FRJ         0.0907
      3 O35        62.3910   32.6040   25.0870 O.2       1 FRJ        -0.1451
      4 N34        60.8520   34.6750   24.6580 N.am      1 FRJ        -0.1460
      5 C37        59.9690   34.2110   25.6890 C.2       1 FRJ         0.2004
      6 N38        60.0220   32.9750   26.1900 N.2       1 FRJ        -0.3304
      7 C39        59.0610   32.8340   27.1420 C.2       1 FRJ        -0.0509
      8 C40        58.3010   33.9790   27.3290 C.2       1 FRJ        -0.0108
      9 S41        58.8050   35.2310   26.3010 S.3       1 FRJ         0.0063
     10 C30        61.4410   32.8150   22.6180 C.ar      1 FRJ         0.0984
     11 C31        60.5580   33.4940   21.7690 C.ar      1 FRJ        -0.0507
     12 C32        60.0840   32.8750   20.6140 C.ar      1 FRJ        -0.0437
     13 C29        61.8530   31.5180   22.3010 C.ar      1 FRJ        -0.0507
     14 C28        61.3770   30.9000   21.1460 C.ar      1 FRJ        -0.0437
     15 C27        60.4890   31.5730   20.3050 C.ar      1 FRJ         0.0625
     16 N16        60.0520   30.9390   19.1870 N.am      1 FRJ        -0.1881
     17 S15        58.5750   31.3190   18.3950 S.o2      1 FRJ         0.0837
     18 O17        58.4170   30.3380   17.3030 O.2       1 FRJ        -0.1459
     19 O18        58.5930   32.6890   17.8380 O.2       1 FRJ        -0.1459
     20 C2         57.2850   31.1410   19.5120 C.ar      1 FRJ         0.0999
     21 C1         56.2520   32.0960   19.6320 C.ar      1 FRJ        -0.0526
     22 C3         57.3150   29.9900   20.2930 C.ar      1 FRJ        -0.0064
     23 C6         56.2840   29.8260   21.1900 C.ar      1 FRJ         0.1286
     24 O7         56.0860   28.7980   22.0490 O.3       1 FRJ        -0.2376
     25 C5         55.2070   30.8100   21.3240 C.ar      1 FRJ        -0.0033
     26 C4         55.1930   31.9540   20.5440 C.ar      1 FRJ        -0.0722
     27 C9         54.3580   30.3330   22.4570 C.2       1 FRJ         0.0479
     28 C8         54.8680   29.1160   22.7810 C.2       1 FRJ         0.1324
     29 C13        54.3410   28.1640   23.8370 C.3       1 FRJ         0.0229
     30 C14        55.3440   27.0520   24.1310 C.3       1 FRJ        -0.0481
     31 C10        53.1240   30.6690   22.7650 C.2       1 FRJ         0.1218
     32 O12        52.4580   30.9860   21.7920 O.2       1 FRJ        -0.3985
     33 C11        52.2670   30.4680   23.9520 C.ar      1 FRJ         0.0198
     34 C19        52.9930   30.0740   25.0670 C.ar      1 FRJ        -0.0403
     35 C20        52.4290   29.8970   26.3060 C.ar      1 FRJ         0.0492
     36 BR26       53.4780   29.3240   27.7420 Br        1 FRJ        -0.0557
     37 C21        51.0050   30.1780   26.4840 C.ar      1 FRJ         0.1133
     38 O25        50.4470   30.0430   27.5920 O.3       1 FRJ        -0.3255
     39 C22        50.2750   30.6310   25.2900 C.ar      1 FRJ         0.0492
     40 C23        50.9090   30.7880   24.0560 C.ar      1 FRJ        -0.0403
     41 BR24       48.4610   30.9660   25.5520 Br        1 FRJ        -0.0557
     42 H1         60.7799   35.6079   24.3051 H         1 FRJ         0.2341
     43 H2         58.9038   31.9133   27.7020 H         1 FRJ         0.0489
     44 H3         57.4846   34.0636   28.0447 H         1 FRJ         0.0553
     45 H4         60.2428   34.5026   22.0107 H         1 FRJ         0.0591
     46 H5         59.4024   33.4021   19.9562 H         1 FRJ         0.0482
     47 H6         62.5421   30.9930   22.9527 H         1 FRJ         0.0591
     48 H7         61.6972   29.8940   20.9001 H         1 FRJ         0.0482
     49 H8         60.6205   30.2112   18.8034 H         1 FRJ         0.2162
     50 H9         56.2771   32.9731   18.9955 H         1 FRJ         0.0540
     51 H10        58.1102   29.2593   20.1998 H         1 FRJ         0.0575
     52 H11        54.4094   32.6978   20.6321 H         1 FRJ         0.0521
     53 H12        53.4030   27.7149   23.4786 H         1 FRJ         0.0520
     54 H13        54.1482   28.7265   24.7624 H         1 FRJ         0.0520
     55 H14        54.9324   26.3806   24.8990 H         1 FRJ         0.0261
     56 H15        56.2839   27.4927   24.4949 H         1 FRJ         0.0261
     57 H16        55.5387   26.4811   23.2111 H         1 FRJ         0.0261
     58 H17        54.0566   29.8975   24.9542 H         1 FRJ         0.0693
     59 H18        49.5281   30.2703   27.5123 H         1 FRJ         0.2529
     60 H19        50.3595   31.1509   23.1949 H         1 FRJ         0.0693
@<TRIPOS>BOND
     1    1    2 2  
     2    2    3 2  
     3    2    4 am 
     4    2   10 1  
     5    4    5 1  
     6    5    6 2  
     7    5    9 1  
     8    6    7 1  
     9    7    8 2  
    10    8    9 1  
    11   10   11 ar 
    12   10   13 ar 
    13   11   12 ar 
    14   12   15 ar 
    15   13   14 ar 
    16   14   15 ar 
    17   15   16 1  
    18   16   17 am 
    19   17   18 2  
    20   17   19 2  
    21   17   20 1  
    22   20   21 ar 
    23   20   22 ar 
    24   21   26 ar 
    25   22   23 ar 
    26   23   24 1  
    27   23   25 ar 
    28   24   28 1  
    29   25   26 ar 
    30   25   27 1  
    31   27   28 2  
    32   27   31 1  
    33   28   29 1  
    34   29   30 1  
    35   31   32 2  
    36   31   33 1  
    37   33   34 ar 
    38   33   40 ar 
    39   34   35 ar 
    40   35   36 1  
    41   35   37 ar 
    42   37   38 1  
    43   37   39 ar 
    44   39   40 ar 
    45   39   41 1  
    46    4   42 1  
    47    7   43 1  
    48    8   44 1  
    49   11   45 1  
    50   12   46 1  
    51   13   47 1  
    52   14   48 1  
    53   16   49 1  
    54   21   50 1  
    55   22   51 1  
    56   26   52 1  
    57   29   53 1  
    58   29   54 1  
    59   30   55 1  
    60   30   56 1  
    61   30   57 1  
    62   34   58 1  
    63   38   59 1  
    64   40   60 1  
@<TRIPOS>SUBSTRUCTURE
     1 FRJ         1

