### 
### Created by X-TOOL on Mon Sep 10 21:12:52 2018
### 

@<TRIPOS>MOLECULE
1t4s_ligand
   19    18     1     0     0
SMALL
GAST_HUCK


@<TRIPOS>ATOM
      1 N           0.7320   45.3470   -8.5190 N.4       1 VAL         0.2329
      2 CA          0.3340   44.7360   -9.7660 C.3       1 VAL         0.0307
      3 C           0.9670   45.5810  -10.9400 C.2       1 VAL         0.0847
      4 O           0.0940   46.1250  -11.8210 O.co2     1 VAL        -0.5642
      5 CB         -1.2180   44.3770   -9.7090 C.3       1 VAL         0.0084
      6 CG1        -2.0690   44.8630  -10.8980 C.3       1 VAL        -0.0559
      7 CG2        -1.3740   42.8760   -9.5690 C.3       1 VAL        -0.0559
      8 OXT         2.1670   45.7960  -11.0610 O.co2     1 VAL        -0.5642
      9 H1          1.7134   45.5743   -8.5544 H         1 VAL         0.2010
     10 H2          0.5631   44.7044   -7.7610 H         1 VAL         0.2010
     11 H3          0.1973   46.1887   -8.3715 H         1 VAL         0.2010
     12 H4          0.8365   43.7593   -9.8253 H         1 VAL         0.1027
     13 H5         -1.6255   44.8541   -8.8055 H         1 VAL         0.0369
     14 H6         -3.1155   44.5588  -10.7485 H         1 VAL         0.0235
     15 H7         -1.6871   44.4177  -11.8285 H         1 VAL         0.0235
     16 H8         -2.0121   45.9594  -10.9658 H         1 VAL         0.0235
     17 H9         -0.7687   42.5220   -8.7215 H         1 VAL         0.0235
     18 H10        -1.0346   42.3843  -10.4926 H         1 VAL         0.0235
     19 H11        -2.4318   42.6323   -9.3912 H         1 VAL         0.0235
@<TRIPOS>BOND
     1    1    2 1  
     2    2    3 1  
     3    2    5 1  
     4    3    4 ar 
     5    3    8 ar 
     6    5    6 1  
     7    5    7 1  
     8    1    9 1  
     9    1   10 1  
    10    1   11 1  
    11    2   12 1  
    12    5   13 1  
    13    6   14 1  
    14    6   15 1  
    15    6   16 1  
    16    7   17 1  
    17    7   18 1  
    18    7   19 1  
@<TRIPOS>SUBSTRUCTURE
     1 VAL         1

