### 
### Created by X-TOOL on Sun Sep  9 21:50:18 2018
### 

@<TRIPOS>MOLECULE
1t5a_ligand
    6     5     1     0     0
SMALL
GAST_HUCK


@<TRIPOS>ATOM
      1 C1         70.9350    0.5140   71.7250 C.2       1 NON         0.0999
      2 C2         71.5060    1.6510   72.6370 C.2       1 NON         0.0999
      3 O1         70.6550    0.8880   70.5780 O.co2     1 NON        -0.5500
      4 O2         71.8250    1.3750   73.8390 O.co2     1 NON        -0.5500
      5 O3         70.7890   -0.6670   72.1700 O.co2     1 NON        -0.5500
      6 O4         71.6000    2.7760   72.0800 O.co2     1 NON        -0.5500
@<TRIPOS>BOND
     1    1    2 1  
     2    1    3 ar 
     3    1    5 ar 
     4    2    4 ar 
     5    2    6 ar 
@<TRIPOS>SUBSTRUCTURE
     1 NON         1

