### 
### Created by X-TOOL on Mon Sep 10 21:12:53 2018
### 

@<TRIPOS>MOLECULE
1t5f_ligand
   27    26     1     0     0
SMALL
GAST_HUCK


@<TRIPOS>ATOM
      1 NP1        88.5700   43.8420   -6.2920 N.4       1 DHH         0.2327
      2 C02        88.3750   43.9240   -7.8060 C.3       1 DHH         0.0283
      3 C03        88.8260   45.2290   -8.3850 C.2       1 DHH         0.0844
      4 O04        88.9680   45.4820   -9.5610 O.co2     1 DHH        -0.5643
      5 O05        88.9600   46.1310   -7.4170 O.co2     1 DHH        -0.5643
      6 C06        86.8730   43.5200   -8.1440 C.3       1 DHH         0.0024
      7 C07        85.9270   44.7670   -8.2390 C.3       1 DHH        -0.0462
      8 C08        84.5260   44.2260   -8.5560 C.3       1 DHH        -0.0482
      9 C09        83.5550   44.9910   -7.7060 C.3       1 DHH        -0.0020
     10 C10        82.1140   44.8390   -8.1500 C.3       1 DHH         0.1531
     11 O1         81.3760   44.6790   -6.9920 O.3       1 DHH        -0.3672
     12 O2         81.5480   46.0250   -8.6640 O.3       1 DHH        -0.3672
     13 H1         88.2502   42.9455   -5.9601 H         1 DHH         0.2010
     14 H2         88.0407   44.5741   -5.8449 H         1 DHH         0.2010
     15 H3         89.5476   43.9522   -6.0727 H         1 DHH         0.2010
     16 H4         89.0193   43.1556   -8.2582 H         1 DHH         0.1024
     17 H5         86.4999   42.8527   -7.3531 H         1 DHH         0.0339
     18 H6         86.8577   42.9905   -9.1080 H         1 DHH         0.0339
     19 H7         86.2648   45.4405   -9.0404 H         1 DHH         0.0268
     20 H8         85.9173   45.3107   -7.2828 H         1 DHH         0.0268
     21 H9         84.4728   43.1535   -8.3174 H         1 DHH         0.0267
     22 H10        84.2954   44.3767   -9.6209 H         1 DHH         0.0267
     23 H11        83.8214   46.0575   -7.7467 H         1 DHH         0.0314
     24 H12        83.6401   44.6311   -6.6700 H         1 DHH         0.0314
     25 H13        82.0098   44.0002   -8.8540 H         1 DHH         0.0905
     26 H14        81.5017   45.4350   -6.4307 H         1 DHH         0.2125
     27 H15        80.6204   45.8905   -8.8193 H         1 DHH         0.2125
@<TRIPOS>BOND
     1    1    2 1  
     2    2    3 1  
     3    2    6 1  
     4    3    4 ar 
     5    3    5 ar 
     6    6    7 1  
     7    7    8 1  
     8    8    9 1  
     9    9   10 1  
    10   10   11 1  
    11   10   12 1  
    12    1   13 1  
    13    1   14 1  
    14    1   15 1  
    15    2   16 1  
    16    6   17 1  
    17    6   18 1  
    18    7   19 1  
    19    7   20 1  
    20    8   21 1  
    21    8   22 1  
    22    9   23 1  
    23    9   24 1  
    24   10   25 1  
    25   11   26 1  
    26   12   27 1  
@<TRIPOS>SUBSTRUCTURE
     1 DHH         1

