### 
### Created by X-TOOL on Mon Sep 10 21:12:52 2018
### 

@<TRIPOS>MOLECULE
1t69_ligand
   39    39     1     0     0
SMALL
GAST_HUCK


@<TRIPOS>ATOM
      1 O1         28.1170   -2.3830   -6.7170 O.3       1 SHH        -0.2717
      2 O2         28.9070   -1.2850   -8.9660 O.2       1 SHH        -0.3970
      3 N1         29.2620   -2.5080   -7.1600 N.am      1 SHH        -0.1642
      4 C1         29.4990   -2.2090   -8.4230 C.2       1 SHH         0.1988
      5 C2         30.5260   -3.0790   -9.1240 C.3       1 SHH         0.0389
      6 C3         30.2290   -3.1560  -10.6170 C.3       1 SHH        -0.0361
      7 C4         30.1860   -4.5830  -11.1480 C.3       1 SHH        -0.0509
      8 C5         29.0160   -4.7240  -12.1150 C.3       1 SHH        -0.0508
      9 C6         29.4480   -5.1720  -13.5050 C.3       1 SHH        -0.0356
     10 C7         29.1480   -4.0950  -14.5380 C.3       1 SHH         0.0432
     11 C8         30.0860   -4.2530  -15.7110 C.2       1 SHH         0.2036
     12 O3         31.1070   -4.9240  -15.6220 O.2       1 SHH        -0.3849
     13 N2         29.6830   -3.6430  -16.8310 N.am      1 SHH        -0.2339
     14 C9         30.4660   -3.0430  -17.7610 C.ar      1 SHH         0.0662
     15 C10        29.9570   -1.9040  -18.4040 C.ar      1 SHH        -0.0413
     16 C11        30.7120   -1.2440  -19.3730 C.ar      1 SHH        -0.0755
     17 C12        31.9770   -1.7310  -19.7030 C.ar      1 SHH        -0.0772
     18 C13        32.4830   -2.8780  -19.0690 C.ar      1 SHH        -0.0755
     19 C14        31.7290   -3.5420  -18.1010 C.ar      1 SHH        -0.0413
     20 H1         27.8428   -1.4774   -6.8021 H         1 SHH         0.2490
     21 H2         30.0009   -2.8318   -6.5691 H         1 SHH         0.2216
     22 H3         30.4954   -4.0918   -8.6960 H         1 SHH         0.0502
     23 H4         31.5273   -2.6483   -8.9757 H         1 SHH         0.0502
     24 H5         31.0125   -2.6053  -11.1581 H         1 SHH         0.0289
     25 H6         29.2532   -2.6840  -10.8041 H         1 SHH         0.0289
     26 H7         30.0567   -5.2835  -10.3098 H         1 SHH         0.0267
     27 H8         31.1260   -4.8086  -11.6728 H         1 SHH         0.0267
     28 H9         28.5120   -3.7501  -12.2008 H         1 SHH         0.0267
     29 H10        28.3128   -5.4664  -11.7096 H         1 SHH         0.0267
     30 H11        28.9046   -6.0900  -13.7731 H         1 SHH         0.0290
     31 H12        30.5292   -5.3744  -13.4988 H         1 SHH         0.0290
     32 H13        29.2895   -3.1024  -14.0856 H         1 SHH         0.0508
     33 H14        28.1083   -4.1960  -14.8828 H         1 SHH         0.0508
     34 H15        28.6976   -3.6279  -17.0008 H         1 SHH         0.2257
     35 H16        28.9709   -1.5351  -18.1458 H         1 SHH         0.0502
     36 H17        30.3199   -0.3613  -19.8650 H         1 SHH         0.0577
     37 H18        32.5724   -1.2219  -20.4523 H         1 SHH         0.0487
     38 H19        33.4662   -3.2498  -19.3338 H         1 SHH         0.0577
     39 H20        32.1159   -4.4323  -17.6186 H         1 SHH         0.0502
@<TRIPOS>BOND
     1    3    1 1  
     2    4    2 2  
     3    3    4 am 
     4    4    5 1  
     5    5    6 1  
     6    6    7 1  
     7    7    8 1  
     8    8    9 1  
     9    9   10 1  
    10   10   11 1  
    11   11   12 2  
    12   11   13 am 
    13   13   14 1  
    14   14   15 ar 
    15   14   19 ar 
    16   15   16 ar 
    17   16   17 ar 
    18   17   18 ar 
    19   18   19 ar 
    20    1   20 1  
    21    3   21 1  
    22    5   22 1  
    23    5   23 1  
    24    6   24 1  
    25    6   25 1  
    26    7   26 1  
    27    7   27 1  
    28    8   28 1  
    29    8   29 1  
    30    9   30 1  
    31    9   31 1  
    32   10   32 1  
    33   10   33 1  
    34   13   34 1  
    35   15   35 1  
    36   16   36 1  
    37   17   37 1  
    38   18   38 1  
    39   19   39 1  
@<TRIPOS>SUBSTRUCTURE
     1 SHH         1

