### 
### Created by X-TOOL on Mon Sep 10 21:12:52 2018
### 

@<TRIPOS>MOLECULE
1t7j_ligand
   70    72     1     0     0
SMALL
GAST_HUCK


@<TRIPOS>ATOM
      1 C1          2.0070    2.8160   10.6350 C.3       1 478         0.0782
      2 C2          0.8200    1.0250   11.7420 C.3       1 478         0.0034
      3 C3          3.8250    0.0930   12.5250 C.2       1 478         0.3203
      4 C4          2.1690    1.3590   11.0980 C.3       1 478         0.1134
      5 C5          5.6950   -0.3110   14.1440 C.3       1 478         0.0807
      6 C6          5.1670   -0.6860   15.6050 C.3       1 478         0.0967
      7 C7          7.0620    0.5200   13.9940 C.3       1 478         0.0064
      8 C8          7.3880    0.7970   12.5500 C.ar      1 478        -0.0408
      9 C9          6.9640    2.0730   11.9750 C.ar      1 478        -0.0603
     10 C10         8.0970   -0.1760   11.7170 C.ar      1 478        -0.0603
     11 C11         7.2260    2.4040   10.5840 C.ar      1 478        -0.0686
     12 C12         8.3640    0.1660   10.3110 C.ar      1 478        -0.0686
     13 C13         7.9270    1.4630    9.7350 C.ar      1 478        -0.0687
     14 C14         5.7570   -1.8560   16.5500 C.3       1 478         0.0578
     15 C15         4.5660   -4.2700   16.2250 C.3       1 478         0.0319
     16 C16         3.1960   -3.7610   15.8200 C.3       1 478        -0.0296
     17 C17         8.3160   -4.4280   15.8090 C.ar      1 478         0.0949
     18 C18         9.5320   -3.6980   16.1420 C.ar      1 478        -0.0471
     19 C19        10.5500   -4.3460   16.9460 C.ar      1 478        -0.0429
     20 C20        10.3240   -5.7010   17.3960 C.ar      1 478         0.0353
     21 C21         9.1400   -6.4040   17.0650 C.ar      1 478        -0.0429
     22 C22         8.1380   -5.7630   16.2730 C.ar      1 478        -0.0471
     23 C23         2.5440   -2.8560   16.8570 C.3       1 478        -0.0612
     24 C24         3.1160   -3.1640   14.3910 C.3       1 478        -0.0612
     25 C25        -0.0280    2.2940   11.6190 C.3       1 478         0.0505
     26 N1          4.6550    0.4610   13.4810 N.am      1 478        -0.2550
     27 N2          5.8650   -3.3370   16.2110 N.am      1 478        -0.2327
     28 N3         11.2170   -6.3030   18.1240 N.pl3     1 478        -0.3369
     29 O1          3.1840    1.2650   12.1090 O.3       1 478        -0.2582
     30 O2          3.6390   -0.9900   12.1130 O.2       1 478        -0.3775
     31 O3          5.2800    0.4390   16.4090 O.3       1 478        -0.3877
     32 O4          7.6060   -2.5810   14.2350 O.2       1 478        -0.1518
     33 O5          6.6400   -4.7840   14.0200 O.2       1 478        -0.1518
     34 O6          0.8200    3.3650   11.2580 O.3       1 478        -0.3768
     35 S1          7.0350   -3.7360   14.9110 S.o2      1 478         0.0648
     36 H1          1.9008    2.8483    9.5406 H         1 478         0.0589
     37 H2          2.8886    3.4014   10.9353 H         1 478         0.0589
     38 H3          0.9567    0.7571   12.8001 H         1 478         0.0316
     39 H4          0.3388    0.1901   11.2115 H         1 478         0.0316
     40 H5          2.3987    0.6912   10.2546 H         1 478         0.0671
     41 H6          5.8383   -1.2600   13.6067 H         1 478         0.0604
     42 H7          4.1031   -0.9268   15.4634 H         1 478         0.0634
     43 H8          7.8831   -0.0603   14.4401 H         1 478         0.0449
     44 H9          6.9580    1.4771   14.5262 H         1 478         0.0449
     45 H10         6.4424    2.7884   12.6004 H         1 478         0.0557
     46 H11         8.4180   -1.1269   12.1267 H         1 478         0.0557
     47 H12         6.8966    3.3553   10.1821 H         1 478         0.0599
     48 H13         8.8905   -0.5434    9.6828 H         1 478         0.0599
     49 H14         8.1291    1.7014    8.6970 H         1 478         0.0559
     50 H15         5.1465   -1.8177   17.4642 H         1 478         0.0504
     51 H16         6.7853   -1.5421   16.7823 H         1 478         0.0504
     52 H17         4.7887   -5.1146   15.5564 H         1 478         0.0480
     53 H18         4.4636   -4.6364   17.2571 H         1 478         0.0480
     54 H19         2.5647   -4.6611   15.7866 H         1 478         0.0311
     55 H20         9.6742   -2.6817   15.7926 H         1 478         0.0602
     56 H21        11.4640   -3.8238   17.2049 H         1 478         0.0515
     57 H22         8.9948   -7.4213   17.4100 H         1 478         0.0515
     58 H23         7.2303   -6.2998   16.0220 H         1 478         0.0602
     59 H24         1.5590   -2.5300   16.4916 H         1 478         0.0233
     60 H25         3.1812   -1.9759   17.0281 H         1 478         0.0233
     61 H26         2.4208   -3.4084   17.8002 H         1 478         0.0233
     62 H27         3.5981   -3.8504   13.6794 H         1 478         0.0233
     63 H28         3.6316   -2.1926   14.3700 H         1 478         0.0233
     64 H29         2.0616   -3.0256   14.1099 H         1 478         0.0233
     65 H30        -0.5119    2.5121   12.5825 H         1 478         0.0561
     66 H31        -0.7975    2.1529   10.8458 H         1 478         0.0561
     67 H32         4.5556    1.4051   13.7952 H         1 478         0.1873
     68 H33        12.0874   -5.8150   18.3795 H         1 478         0.1719
     69 H34        11.0542   -7.2680   18.4453 H         1 478         0.1719
     70 H35         4.7706    0.3133   17.2009 H         1 478         0.2100
@<TRIPOS>BOND
     1    4    1 1  
     2    1   34 1  
     3    4    2 1  
     4    2   25 1  
     5   26    3 am 
     6    3   29 1  
     7    3   30 2  
     8   29    4 1  
     9    6    5 1  
    10    5    7 1  
    11    5   26 1  
    12   14    6 1  
    13    6   31 1  
    14    7    8 1  
    15    8    9 ar 
    16    8   10 ar 
    17    9   11 ar 
    18   10   12 ar 
    19   11   13 ar 
    20   12   13 ar 
    21   27   14 1  
    22   15   16 1  
    23   27   15 1  
    24   16   23 1  
    25   16   24 1  
    26   17   18 ar 
    27   17   22 ar 
    28   35   17 1  
    29   18   19 ar 
    30   19   20 ar 
    31   21   20 ar 
    32   20   28 1  
    33   22   21 ar 
    34   25   34 1  
    35   27   35 am 
    36   35   32 2  
    37   35   33 2  
    38    1   36 1  
    39    1   37 1  
    40    2   38 1  
    41    2   39 1  
    42    4   40 1  
    43    5   41 1  
    44    6   42 1  
    45    7   43 1  
    46    7   44 1  
    47    9   45 1  
    48   10   46 1  
    49   11   47 1  
    50   12   48 1  
    51   13   49 1  
    52   14   50 1  
    53   14   51 1  
    54   15   52 1  
    55   15   53 1  
    56   16   54 1  
    57   18   55 1  
    58   19   56 1  
    59   21   57 1  
    60   22   58 1  
    61   23   59 1  
    62   23   60 1  
    63   23   61 1  
    64   24   62 1  
    65   24   63 1  
    66   24   64 1  
    67   25   65 1  
    68   25   66 1  
    69   26   67 1  
    70   28   68 1  
    71   28   69 1  
    72   31   70 1  
@<TRIPOS>SUBSTRUCTURE
     1 478         1

