### 
### Created by X-TOOL on Mon Sep 10 21:12:51 2018
### 

@<TRIPOS>MOLECULE
1ta2_ligand
   62    65     1     0     0
SMALL
GAST_HUCK


@<TRIPOS>ATOM
      1 N0         15.8660  -16.7580   23.5030 N.4       1 176         0.2410
      2 CA0        17.1550  -16.1010   23.4550 C.3       1 176         0.0866
      3 CB0        17.7760  -15.9630   24.8830 C.3       1 176         0.0858
      4 CG1        19.2120  -15.4260   24.9960 C.ar      1 176        -0.0211
      5 CD1        20.2020  -15.8250   24.1330 C.ar      1 176        -0.0577
      6 CE1        21.4950  -15.3760   24.3010 C.ar      1 176        -0.0682
      7 CZ1        21.8120  -14.5240   25.3310 C.ar      1 176        -0.0685
      8 CE2        20.8240  -14.1130   26.1900 C.ar      1 176        -0.0682
      9 CD2        19.5340  -14.5620   26.0220 C.ar      1 176        -0.0577
     10 CG2        17.6640  -17.2060   25.7530 C.ar      1 176        -0.0211
     11 CD3        17.8350  -18.4740   25.2130 C.ar      1 176        -0.0577
     12 CE3        17.7410  -19.5790   26.0350 C.ar      1 176        -0.0682
     13 CZ2        17.4820  -19.4190   27.3820 C.ar      1 176        -0.0685
     14 CE4        17.3150  -18.1500   27.9110 C.ar      1 176        -0.0682
     15 CD4        17.4020  -17.0370   27.1040 C.ar      1 176        -0.0577
     16 C0         16.8700  -14.7370   22.8670 C.2       1 176         0.2336
     17 O0         15.9140  -14.0630   23.2910 O.2       1 176        -0.3901
     18 N          17.6840  -14.2690   21.9030 N.am      1 176        -0.2468
     19 CD         18.8430  -14.9480   21.3240 C.3       1 176         0.0371
     20 CA         17.4520  -13.0160   21.1990 C.3       1 176         0.1339
     21 CB         18.5290  -13.0280   20.1110 C.3       1 176        -0.0104
     22 CG         19.6380  -13.8030   20.7460 C.3       1 176        -0.0281
     23 C          16.0260  -12.8260   20.6590 C.2       1 176         0.2037
     24 O          15.6730  -13.4810   19.6730 O.2       1 176        -0.3944
     25 N'         15.2430  -11.8970   21.2410 N.am      1 176        -0.2736
     26 CA'        13.8920  -11.6010   20.8080 C.3       1 176         0.0651
     27 CB'        12.9150  -11.5570   21.9770 C.ar      1 176        -0.0065
     28 CG'        12.0460  -12.5690   22.2790 C.ar      1 176         0.0433
     29 CD'        11.1370  -12.5980   23.3220 C.ar      1 176        -0.0540
     30 CE'        11.0810  -11.5020   24.1630 C.ar      1 176        -0.0543
     31 C31        11.9440  -10.4620   23.8820 C.ar      1 176         0.0340
     32 C32        12.8300  -10.4940   22.8240 C.ar      1 176        -0.0440
     33 CL1        12.0890  -13.8950   21.2070 Cl        1 176        -0.0769
     34 CL2        11.9280   -9.0600   24.8550 Cl        1 176        -0.0723
     35 H1         15.9746  -17.6833   23.8879 H         1 176         0.2018
     36 H2         15.4876  -16.8241   22.5711 H         1 176         0.2018
     37 H3         15.2382  -16.2242   24.0835 H         1 176         0.2018
     38 H4         17.8477  -16.6623   22.8108 H         1 176         0.1149
     39 H5         17.1476  -15.2025   25.3695 H         1 176         0.0701
     40 H6         19.9663  -16.4964   23.3153 H         1 176         0.0561
     41 H7         22.2687  -15.6985   23.6137 H         1 176         0.0600
     42 H8         22.8314  -14.1802   25.4637 H         1 176         0.0561
     43 H9         21.0598  -13.4341   27.0015 H         1 176         0.0600
     44 H10        18.7601  -14.2321   26.7055 H         1 176         0.0561
     45 H11        18.0404  -18.5949   24.1555 H         1 176         0.0561
     46 H12        17.8706  -20.5732   25.6228 H         1 176         0.0600
     47 H13        17.4093  -20.2878   28.0262 H         1 176         0.0561
     48 H14        17.1140  -18.0315   28.9696 H         1 176         0.0600
     49 H15        17.2677  -16.0445   27.5187 H         1 176         0.0561
     50 H16        18.5379  -15.6559   20.5393 H         1 176         0.0524
     51 H17        19.4177  -15.4812   22.0956 H         1 176         0.0524
     52 H18        17.6447  -12.1802   21.8877 H         1 176         0.0802
     53 H19        18.8521  -12.0062   19.8629 H         1 176         0.0313
     54 H20        18.1667  -13.5291   19.2013 H         1 176         0.0313
     55 H21        20.3743  -14.1476   20.0050 H         1 176         0.0287
     56 H22        20.1489  -13.2222   21.5281 H         1 176         0.0287
     57 H23        15.6145  -11.3833   22.0144 H         1 176         0.1879
     58 H24        13.5666  -12.3794   20.1022 H         1 176         0.0685
     59 H25        13.8867  -10.6234   20.3037 H         1 176         0.0685
     60 H26        10.4890  -13.4534   23.4749 H         1 176         0.0605
     61 H27        10.3941  -11.4615   25.0006 H         1 176         0.0565
     62 H28        13.4812   -9.6428   22.6616 H         1 176         0.0562
@<TRIPOS>BOND
     1    1    2 1  
     2    2    3 1  
     3    2   16 1  
     4    3    4 1  
     5    3   10 1  
     6    4    5 ar 
     7    4    9 ar 
     8    5    6 ar 
     9    6    7 ar 
    10    7    8 ar 
    11    8    9 ar 
    12   10   11 ar 
    13   10   15 ar 
    14   11   12 ar 
    15   12   13 ar 
    16   13   14 ar 
    17   14   15 ar 
    18   16   17 2  
    19   16   18 am 
    20   18   19 1  
    21   18   20 1  
    22   19   22 1  
    23   20   21 1  
    24   20   23 1  
    25   21   22 1  
    26   23   24 2  
    27   23   25 am 
    28   25   26 1  
    29   26   27 1  
    30   27   28 ar 
    31   27   32 ar 
    32   28   29 ar 
    33   28   33 1  
    34   29   30 ar 
    35   30   31 ar 
    36   31   32 ar 
    37   31   34 1  
    38    1   35 1  
    39    1   36 1  
    40    1   37 1  
    41    2   38 1  
    42    3   39 1  
    43    5   40 1  
    44    6   41 1  
    45    7   42 1  
    46    8   43 1  
    47    9   44 1  
    48   11   45 1  
    49   12   46 1  
    50   13   47 1  
    51   14   48 1  
    52   15   49 1  
    53   19   50 1  
    54   19   51 1  
    55   20   52 1  
    56   21   53 1  
    57   21   54 1  
    58   22   55 1  
    59   22   56 1  
    60   25   57 1  
    61   26   58 1  
    62   26   59 1  
    63   29   60 1  
    64   30   61 1  
    65   32   62 1  
@<TRIPOS>SUBSTRUCTURE
     1 176         1

