### 
### Created by X-TOOL on Mon Sep 10 21:12:51 2018
### 

@<TRIPOS>MOLECULE
1ta6_ligand
   69    71     1     0     0
SMALL
GAST_HUCK


@<TRIPOS>ATOM
      1 CB0        18.3540  -15.5110   24.5110 C.3       1 177         0.0195
      2 CG1        19.6950  -14.8060   24.2940 C.3       1 177        -0.0429
      3 CG2        18.6080  -16.7810   25.3240 C.3       1 177        -0.0429
      4 CD1        20.3820  -14.4750   25.5970 C.3       1 177        -0.0525
      5 CD2        19.2390  -16.4650   26.6590 C.3       1 177        -0.0525
      6 CE0        20.5600  -15.7250   26.4480 C.3       1 177        -0.0530
      7 C0         17.1190  -14.5420   22.5670 C.2       1 177         0.2295
      8 O0         16.0610  -14.0490   23.0210 O.2       1 177        -0.3905
      9 N0         16.5390  -16.7740   23.3160 N.4       1 177         0.2381
     10 CA0        17.6790  -15.8310   23.1550 C.3       1 177         0.0680
     11 N          17.7960  -13.9860   21.5400 N.am      1 177        -0.2471
     12 CD         18.9950  -14.5580   20.8960 C.3       1 177         0.0371
     13 CA         17.3940  -12.7490   20.8620 C.3       1 177         0.1339
     14 CB         18.2040  -12.8090   19.5720 C.3       1 177        -0.0104
     15 CG         19.4760  -13.4040   20.0290 C.3       1 177        -0.0281
     16 C          15.8980  -12.7300   20.5530 C.2       1 177         0.2035
     17 O          15.3430  -13.7480   20.1180 O.2       1 177        -0.3944
     18 N'         15.2450  -11.6060   20.8350 N.am      1 177        -0.2755
     19 CA'        13.8170  -11.4050   20.6020 C.3       1 177         0.0629
     20 CB'        13.0030  -11.4100   21.8720 C.ar      1 177         0.0092
     21 CG'        12.1660  -12.4880   22.1520 C.ar      1 177         0.0983
     22 CD'        11.2890  -12.4260   23.2580 C.ar      1 177        -0.0386
     23 CE'        11.2650  -11.3160   24.0760 C.ar      1 177        -0.0636
     24 C24        12.1010  -10.2150   23.8200 C.ar      1 177         0.0219
     25 C25        12.9630  -10.2770   22.7080 C.ar      1 177        -0.0530
     26 CL         12.0610   -8.8120   24.7990 Cl        1 177        -0.0828
     27 OL         12.4020  -13.6620   21.4670 O.3       1 177        -0.3009
     28 CF         12.9340  -14.7070   22.2930 C.3       1 177         0.1574
     29 CH         12.7020  -16.0660   21.6720 C.2       1 177         0.2067
     30 OH         12.6950  -17.0820   22.3680 O.2       1 177        -0.3941
     31 N2         12.5300  -16.0900   20.3550 N.am      1 177        -0.2850
     32 CM         12.2590  -17.3040   19.5830 C.3       1 177         0.0281
     33 CN         10.8600  -17.8440   19.8860 C.3       1 177        -0.0449
     34 H1         17.6879  -14.8485   25.0832 H         1 177         0.0381
     35 H2         19.5190  -13.8726   23.7392 H         1 177         0.0271
     36 H3         20.3504  -15.4646   23.7052 H         1 177         0.0271
     37 H4         19.2819  -17.4399   24.7569 H         1 177         0.0271
     38 H5         17.6502  -17.2946   25.4938 H         1 177         0.0271
     39 H6         19.7726  -13.7457   26.1508 H         1 177         0.0265
     40 H7         21.3698  -14.0406   25.3836 H         1 177         0.0265
     41 H8         19.4287  -17.4017   27.2037 H         1 177         0.0265
     42 H9         18.5560  -15.8321   27.2446 H         1 177         0.0265
     43 H10        20.9643  -15.4330   27.4284 H         1 177         0.0265
     44 H11        21.2688  -16.3994   25.9452 H         1 177         0.0265
     45 H12        16.1257  -16.9584   22.4153 H         1 177         0.2015
     46 H13        15.8480  -16.3649   23.9253 H         1 177         0.2015
     47 H14        16.8711  -17.6374   23.7163 H         1 177         0.2015
     48 H15        18.4239  -16.2665   22.4728 H         1 177         0.1101
     49 H16        18.7389  -15.4361   20.2849 H         1 177         0.0524
     50 H17        19.7528  -14.8389   21.6422 H         1 177         0.0524
     51 H18        17.6570  -11.8647   21.4611 H         1 177         0.0802
     52 H19        18.3617  -11.8042   19.1531 H         1 177         0.0313
     53 H20        17.7126  -13.4461   18.8219 H         1 177         0.0313
     54 H21        20.0755  -13.7651   19.1803 H         1 177         0.0287
     55 H22        20.0660  -12.6836   20.6146 H         1 177         0.0287
     56 H23        15.7652  -10.8499   21.2321 H         1 177         0.1875
     57 H24        13.4520  -12.2116   19.9493 H         1 177         0.0660
     58 H25        13.6772  -10.4360   20.1006 H         1 177         0.0660
     59 H26        10.6281  -13.2597   23.4658 H         1 177         0.0522
     60 H27        10.5935  -11.2921   24.9266 H         1 177         0.0538
     61 H28        13.6097   -9.4346   22.4907 H         1 177         0.0532
     62 H29        12.4419  -14.6730   23.2762 H         1 177         0.0856
     63 H30        14.0154  -14.5498   22.4186 H         1 177         0.0856
     64 H31        12.5894  -15.2235   19.8593 H         1 177         0.1851
     65 H32        13.0045  -18.0699   19.8430 H         1 177         0.0517
     66 H33        12.3306  -17.0719   18.5102 H         1 177         0.0517
     67 H34        10.6822  -18.7542   19.2944 H         1 177         0.0249
     68 H35        10.1090  -17.0841   19.6243 H         1 177         0.0249
     69 H36        10.7829  -18.0821   20.9571 H         1 177         0.0249
@<TRIPOS>BOND
     1    1    2 1  
     2    1    3 1  
     3   10    1 1  
     4    2    4 1  
     5    3    5 1  
     6    4    6 1  
     7    5    6 1  
     8    7    8 2  
     9    7   10 1  
    10    7   11 am 
    11   10    9 1  
    12   11   12 1  
    13   11   13 1  
    14   12   15 1  
    15   13   14 1  
    16   13   16 1  
    17   14   15 1  
    18   16   17 2  
    19   16   18 am 
    20   18   19 1  
    21   19   20 1  
    22   20   21 ar 
    23   20   25 ar 
    24   21   22 ar 
    25   21   27 1  
    26   22   23 ar 
    27   23   24 ar 
    28   24   25 ar 
    29   24   26 1  
    30   27   28 1  
    31   28   29 1  
    32   29   30 2  
    33   29   31 am 
    34   31   32 1  
    35   32   33 1  
    36    1   34 1  
    37    2   35 1  
    38    2   36 1  
    39    3   37 1  
    40    3   38 1  
    41    4   39 1  
    42    4   40 1  
    43    5   41 1  
    44    5   42 1  
    45    6   43 1  
    46    6   44 1  
    47    9   45 1  
    48    9   46 1  
    49    9   47 1  
    50   10   48 1  
    51   12   49 1  
    52   12   50 1  
    53   13   51 1  
    54   14   52 1  
    55   14   53 1  
    56   15   54 1  
    57   15   55 1  
    58   18   56 1  
    59   19   57 1  
    60   19   58 1  
    61   22   59 1  
    62   23   60 1  
    63   25   61 1  
    64   28   62 1  
    65   28   63 1  
    66   31   64 1  
    67   32   65 1  
    68   32   66 1  
    69   33   67 1  
    70   33   68 1  
    71   33   69 1  
@<TRIPOS>SUBSTRUCTURE
     1 177         1

