### 
### Created by X-TOOL on Mon Sep 10 21:12:46 2018
### 

@<TRIPOS>MOLECULE
1tbz_ligand
   75    78     1     0     0
SMALL
GAST_HUCK


@<TRIPOS>ATOM
      1 N          15.9710  -16.7030   23.3420 N.4       1 00Q         0.2394
      2 CA         17.3180  -16.0350   23.3760 C.3       1 00Q         0.0746
      3 C          17.1160  -14.6670   22.7340 C.2       1 00Q         0.2313
      4 O          16.0980  -14.0640   23.1020 O.2       1 00Q        -0.3903
      5 CB         17.7620  -15.9460   24.8420 C.3       1 00Q         0.0416
      6 CG         19.1830  -15.4740   24.9790 C.ar      1 00Q        -0.0353
      7 CD1        20.2040  -16.2210   24.3680 C.ar      1 00Q        -0.0600
      8 CD2        19.4910  -14.3500   25.7500 C.ar      1 00Q        -0.0600
      9 CE1        21.5530  -15.8030   24.4760 C.ar      1 00Q        -0.0686
     10 CE2        20.8610  -13.9640   25.9140 C.ar      1 00Q        -0.0686
     11 CZ         21.8870  -14.6860   25.2770 C.ar      1 00Q        -0.0687
     12 N          17.9660  -14.2630   21.8220 N.am      1 00Q        -0.2470
     13 CA         17.7500  -12.9700   21.0910 C.3       1 00Q         0.1338
     14 C          16.3630  -12.9590   20.4590 C.2       1 00Q         0.2024
     15 O          15.8110  -14.0260   20.1000 O.2       1 00Q        -0.3945
     16 CB         18.9190  -12.8540   20.1400 C.3       1 00Q        -0.0104
     17 CG         19.8360  -14.0400   20.3510 C.3       1 00Q        -0.0281
     18 CD         19.1870  -14.9440   21.3740 C.3       1 00Q         0.0371
     19 N          15.6870  -11.8020   20.4690 N.am      1 00Q        -0.2764
     20 CA         14.3470  -11.5500   19.9650 C.3       1 00Q         0.0862
     21 C          14.3130  -10.6130   18.7370 C.3       1 00Q         0.1518
     22 O          13.2540  -10.5190   18.0770 O.3       1 00Q        -0.3669
     23 CB         13.3770  -10.9300   20.9830 C.3       1 00Q        -0.0214
     24 CG         12.9310  -11.8980   22.0430 C.3       1 00Q        -0.0174
     25 CD         11.9120  -11.2870   22.9150 C.3       1 00Q         0.0626
     26 NE         11.2820  -12.2580   23.7470 N.pl3     1 00Q        -0.2723
     27 CZ         10.4450  -12.0770   24.7370 C.cat     1 00Q         0.2882
     28 NH1        10.1850  -10.7810   25.0480 N.pl3     1 00Q        -0.2849
     29 NH2         9.7080  -13.0960   25.1750 N.pl3     1 00Q        -0.2849
     30 C8         15.6310  -11.0900   17.4900 C.2       1 00Q         0.1288
     31 N1         16.8410  -10.8090   17.1950 N.2       1 00Q        -0.3058
     32 C9         17.2560  -11.5450   16.1110 C.ar      1 00Q         0.0222
     33 S1         14.9130  -12.5010   16.6110 S.3       1 00Q         0.0108
     34 C10        16.2370  -12.2760   15.4610 C.ar      1 00Q         0.0528
     35 C11        16.5480  -13.1150   14.3680 C.ar      1 00Q        -0.0503
     36 C12        17.8340  -13.0610   13.8240 C.ar      1 00Q        -0.0722
     37 C13        18.7010  -11.9850   14.2280 C.ar      1 00Q        -0.0730
     38 C14        18.4180  -11.2460   15.3590 C.ar      1 00Q        -0.0588
     39 H1         16.0399  -17.6194   23.7561 H         1 00Q         0.2017
     40 H2         15.6624  -16.7886   22.3862 H         1 00Q         0.2017
     41 H3         15.3079  -16.1488   23.8609 H         1 00Q         0.2017
     42 H4         18.0581  -16.6125   22.8027 H         1 00Q         0.1123
     43 H5         17.6744  -16.9425   25.2995 H         1 00Q         0.0507
     44 H6         17.1025  -15.2411   25.3694 H         1 00Q         0.0507
     45 H7         19.9589  -17.1191   23.8128 H         1 00Q         0.0557
     46 H8         18.7008  -13.7755   26.2196 H         1 00Q         0.0557
     47 H9         22.3303  -16.3397   23.9442 H         1 00Q         0.0599
     48 H10        21.1089  -13.1095   26.5333 H         1 00Q         0.0599
     49 H11        22.9225  -14.3894   25.3988 H         1 00Q         0.0559
     50 H12        17.7962  -12.1309   21.8007 H         1 00Q         0.0802
     51 H13        19.4677  -11.9218   20.3399 H         1 00Q         0.0313
     52 H14        18.5532  -12.8490   19.1026 H         1 00Q         0.0313
     53 H15        20.8137  -13.6970   20.7203 H         1 00Q         0.0287
     54 H16        19.9716  -14.5824   19.4037 H         1 00Q         0.0287
     55 H17        18.9356  -15.9132   20.9186 H         1 00Q         0.0524
     56 H18        19.8662  -15.1036   22.2244 H         1 00Q         0.0524
     57 H19        16.1608  -11.0186   20.8711 H         1 00Q         0.1858
     58 H20        13.9412  -12.5267   19.6627 H         1 00Q         0.0617
     59 H21        14.5417   -9.6076   19.1201 H         1 00Q         0.0901
     60 H22        13.3831   -9.9117   17.3580 H         1 00Q         0.2148
     61 H23        12.4889  -10.5685   20.4440 H         1 00Q         0.0292
     62 H24        13.8790  -10.0825   21.4727 H         1 00Q         0.0292
     63 H25        13.7988  -12.1903   22.6525 H         1 00Q         0.0300
     64 H26        12.5047  -12.7899   21.5605 H         1 00Q         0.0300
     65 H27        11.1478  -10.8051   22.2875 H         1 00Q         0.0689
     66 H28        12.3942  -10.5306   23.5516 H         1 00Q         0.0689
     67 H29        11.5184  -13.2390   23.5403 H         1 00Q         0.2642
     68 H30         9.5362  -10.5558   25.8156 H         1 00Q         0.2615
     69 H31        10.6366  -10.0232   24.5163 H         1 00Q         0.2615
     70 H32         9.9516  -14.0603   24.9072 H         1 00Q         0.2615
     71 H33         8.8944  -12.9199   25.7815 H         1 00Q         0.2615
     72 H34        15.8031  -13.7880   13.9590 H         1 00Q         0.0565
     73 H35        18.1701  -13.8100   13.1161 H         1 00Q         0.0552
     74 H36        19.5819  -11.7536   13.6401 H         1 00Q         0.0552
     75 H37        19.0789  -10.4445   15.6685 H         1 00Q         0.0558
@<TRIPOS>BOND
     1    2    1 1  
     2    3    2 1  
     3    2    5 1  
     4    3    4 2  
     5   12    3 am 
     6    5    6 1  
     7    6    7 ar 
     8    6    8 ar 
     9    7    9 ar 
    10    8   10 ar 
    11    9   11 ar 
    12   10   11 ar 
    13   13   12 1  
    14   12   18 1  
    15   14   13 1  
    16   13   16 1  
    17   14   15 2  
    18   19   14 am 
    19   16   17 1  
    20   17   18 1  
    21   20   19 1  
    22   21   20 1  
    23   20   23 1  
    24   21   22 1  
    25   23   24 1  
    26   24   25 1  
    27   25   26 1  
    28   26   27 ar 
    29   27   28 ar 
    30   27   29 ar 
    31   30   31 2  
    32   30   33 1  
    33   31   32 1  
    34   34   32 ar 
    35   32   38 ar 
    36   33   34 1  
    37   34   35 ar 
    38   35   36 ar 
    39   36   37 ar 
    40   38   37 ar 
    41   30   21 1  
    42    1   39 1  
    43    1   40 1  
    44    1   41 1  
    45    2   42 1  
    46    5   43 1  
    47    5   44 1  
    48    7   45 1  
    49    8   46 1  
    50    9   47 1  
    51   10   48 1  
    52   11   49 1  
    53   13   50 1  
    54   16   51 1  
    55   16   52 1  
    56   17   53 1  
    57   17   54 1  
    58   18   55 1  
    59   18   56 1  
    60   19   57 1  
    61   20   58 1  
    62   21   59 1  
    63   22   60 1  
    64   23   61 1  
    65   23   62 1  
    66   24   63 1  
    67   24   64 1  
    68   25   65 1  
    69   25   66 1  
    70   26   67 1  
    71   28   68 1  
    72   28   69 1  
    73   29   70 1  
    74   29   71 1  
    75   35   72 1  
    76   36   73 1  
    77   37   74 1  
    78   38   75 1  
@<TRIPOS>SUBSTRUCTURE
     1 00Q         1

