### 
### Created by X-TOOL on Mon Sep 10 21:12:47 2018
### 

@<TRIPOS>MOLECULE
1tc1_ligand
   14    15     1     0     0
SMALL
GAST_HUCK


@<TRIPOS>ATOM
      1 N1         -2.2560  -11.9370   20.1060 N.am      1 FMB        -0.2033
      2 C2         -3.3590  -11.4540   20.7280 C.2       1 FMB         0.1165
      3 N3         -4.4420  -10.9300   20.1490 N.2       1 FMB        -0.3125
      4 C4         -4.3350  -10.9220   18.7490 C.2       1 FMB         0.0446
      5 C5         -3.2150  -11.4050   18.0550 C.2       1 FMB         0.1696
      6 C6         -2.1360  -11.9390   18.7640 C.2       1 FMB         0.2569
      7 O6         -1.0780  -12.4010   18.1510 O.2       1 FMB        -0.3926
      8 N7         -3.4380  -11.2470   16.7190 N.pl3     1 FMB        -0.2079
      9 N8         -4.6650  -10.6730   16.5090 N.2       1 FMB        -0.2093
     10 C9         -5.2360  -10.4630   17.7150 C.2       1 FMB         0.0196
     11 H1         -1.5083  -12.3031   20.6600 H         1 FMB         0.2528
     12 H2         -3.3623  -11.4980   21.8161 H         1 FMB         0.1434
     13 H3         -2.7797  -11.5196   15.9752 H         1 FMB         0.2543
     14 H4         -6.2166  -10.0196   17.8818 H         1 FMB         0.0679
@<TRIPOS>BOND
     1    1    2 am 
     2    1    6 am 
     3    2    3 2  
     4    3    4 1  
     5    4    5 2  
     6    4   10 1  
     7    5    6 1  
     8    5    8 1  
     9    6    7 2  
    10    8    9 1  
    11    9   10 2  
    12    1   11 1  
    13    2   12 1  
    14    8   13 1  
    15   10   14 1  
@<TRIPOS>SUBSTRUCTURE
     1 FMB         1

