### 
### Created by X-TOOL on Fri Sep 26 17:34:12 2014
### 

@<TRIPOS>MOLECULE
1tcw_ligand
   81    83     1     0     0
SMALL
GAST_HUCK


@<TRIPOS>ATOM
      1 C1         65.6370   22.3890   28.2640 C.3       1 IM1         0.0905
      2 C2         66.4690   22.3900   29.5510 C.3       1 IM1        -0.0320
      3 C3         64.9440   23.7470   28.1780 C.3       1 IM1        -0.0320
      4 C4         66.5690   22.2510   27.0450 C.3       1 IM1        -0.0320
      5 C5         63.4510   21.2840   27.7980 C.2       1 IM1         0.3204
      6 C6         62.0830   21.3250   25.7240 C.3       1 IM1         0.0794
      7 C7         61.9880   22.4480   24.6670 C.3       1 IM1         0.0064
      8 C8         60.6020   23.0890   24.6590 C.ar      1 IM1        -0.0408
      9 C9         60.0290   23.5620   25.8610 C.ar      1 IM1        -0.0603
     10 C10        58.7370   24.1140   25.8670 C.ar      1 IM1        -0.0686
     11 C11        58.0150   24.1990   24.6770 C.ar      1 IM1        -0.0687
     12 C12        58.5790   23.7350   23.4860 C.ar      1 IM1        -0.0686
     13 C13        59.8660   23.1830   23.4720 C.ar      1 IM1        -0.0603
     14 C14        61.8830   19.9970   25.0350 C.3       1 IM1         0.0823
     15 C15        62.4620   19.7030   23.6640 C.3       1 IM1        -0.0029
     16 C16        61.9020   18.3270   23.3700 C.3       1 IM1         0.0607
     17 C17        61.3720   18.1750   21.9860 C.3       1 IM1         0.0007
     18 C18        62.1540   18.5930   20.8150 C.ar      1 IM1        -0.0405
     19 C19        63.0280   17.6860   20.2520 C.ar      1 IM1        -0.0602
     20 C20        63.6660   18.0540   19.0690 C.ar      1 IM1        -0.0686
     21 C21        63.4180   19.3030   18.4860 C.ar      1 IM1        -0.0687
     22 C22        62.5310   20.2060   19.0850 C.ar      1 IM1        -0.0686
     23 C23        61.8930   19.8490   20.2640 C.ar      1 IM1        -0.0602
     24 C24        62.7460   17.1140   23.5930 C.2       1 IM1         0.1836
     25 C25        62.5800   14.9710   24.5610 C.3       1 IM1         0.1193
     26 C26        62.6790   14.9710   26.1200 C.3       1 IM1        -0.0078
     27 C27        63.6280   13.8950   26.5310 C.3       1 IM1        -0.0583
     28 C28        63.3690   16.2190   26.6700 C.3       1 IM1        -0.0583
     29 C29        61.7940   13.8380   23.9510 C.2       1 IM1         0.1379
     30 C30        61.5510   12.2910   22.4790 C.2       1 IM1         0.0252
     31 C31        60.4080   12.4230   23.2800 C.2       1 IM1        -0.0367
     32 N1         63.3410   21.3520   26.4480 N.am      1 IM1        -0.2550
     33 N2         61.9740   16.2250   24.1970 N.am      1 IM1        -0.2660
     34 N3         62.4300   13.2360   22.9460 N.pl3     1 IM1        -0.2628
     35 N4         60.5870   13.4280   24.2190 N.2       1 IM1        -0.3371
     36 O1         64.7250   21.3180   28.3790 O.3       1 IM1        -0.2581
     37 O2         62.5170   21.1780   28.6050 O.2       1 IM1        -0.3775
     38 O3         60.4760   19.7980   24.9850 O.3       1 IM1        -0.3892
     39 O4         63.9440   16.9470   23.3270 O.2       1 IM1        -0.3964
     40 H1         67.2007   23.2105   29.5139 H         1 IM1         0.0260
     41 H2         66.9986   21.4306   29.6460 H         1 IM1         0.0260
     42 H3         65.8050   22.5297   30.4168 H         1 IM1         0.0260
     43 H4         65.7012   24.5401   28.0902 H         1 IM1         0.0260
     44 H5         64.3448   23.9111   29.0858 H         1 IM1         0.0260
     45 H6         64.2869   23.7682   27.2961 H         1 IM1         0.0260
     46 H7         67.2541   23.1108   27.0081 H         1 IM1         0.0260
     47 H8         65.9672   22.2219   26.1247 H         1 IM1         0.0260
     48 H9         67.1512   21.3218   27.1319 H         1 IM1         0.0260
     49 H10        61.2717   21.4673   26.4530 H         1 IM1         0.0604
     50 H11        62.1913   22.0225   23.6732 H         1 IM1         0.0449
     51 H12        62.7379   23.2195   24.8959 H         1 IM1         0.0449
     52 H13        60.5908   23.4984   26.7859 H         1 IM1         0.0557
     53 H14        58.3030   24.4725   26.7934 H         1 IM1         0.0599
     54 H15        57.0179   24.6243   24.6761 H         1 IM1         0.0559
     55 H16        58.0145   23.8030   22.5631 H         1 IM1         0.0599
     56 H17        60.2927   22.8281   22.5409 H         1 IM1         0.0557
     57 H18        62.3215   19.2419   25.7040 H         1 IM1         0.0619
     58 H19        63.5616   19.6891   23.6898 H         1 IM1         0.0320
     59 H20        62.1219   20.4393   22.9209 H         1 IM1         0.0320
     60 H21        61.0482   18.2304   24.0567 H         1 IM1         0.0561
     61 H22        60.4310   18.7434   21.9498 H         1 IM1         0.0453
     62 H23        61.1591   17.1043   21.8509 H         1 IM1         0.0453
     63 H24        63.2117   16.7223   20.7131 H         1 IM1         0.0557
     64 H25        64.3597   17.3681   18.5963 H         1 IM1         0.0599
     65 H26        63.9173   19.5732   17.5625 H         1 IM1         0.0559
     66 H27        62.3450   21.1733   18.6324 H         1 IM1         0.0599
     67 H28        61.2048   20.5323   20.7483 H         1 IM1         0.0557
     68 H29        63.6003   14.9243   24.1527 H         1 IM1         0.0796
     69 H30        61.6803   14.8378   26.5615 H         1 IM1         0.0345
     70 H31        63.7114   13.8790   27.6277 H         1 IM1         0.0235
     71 H32        64.6170   14.0905   26.0909 H         1 IM1         0.0235
     72 H33        63.2551   12.9224   26.1774 H         1 IM1         0.0235
     73 H34        62.7643   17.1068   26.4331 H         1 IM1         0.0235
     74 H35        64.3638   16.3201   26.2116 H         1 IM1         0.0235
     75 H36        63.4754   16.1284   27.7611 H         1 IM1         0.0235
     76 H37        61.7078   11.5890   21.6614 H         1 IM1         0.0794
     77 H38        59.5062   11.8210   23.1791 H         1 IM1         0.0408
     78 H39        64.1839   21.4258   25.9150 H         1 IM1         0.1873
     79 H40        61.0120   16.4159   24.3920 H         1 IM1         0.1887
     80 H41        63.3774   13.4368   22.5953 H         1 IM1         0.2372
     81 H42        60.2894   18.9702   24.5579 H         1 IM1         0.2099
@<TRIPOS>BOND
     1    1   36 1  
     2    1    4 1  
     3    1    3 1  
     4    1    2 1  
     5   36    5 1  
     6    5   37 2  
     7    5   32 am 
     8   32    6 1  
     9    6   14 1  
    10    6    7 1  
    11    7    8 1  
    12    8   13 ar 
    13    8    9 ar 
    14    9   10 ar 
    15   10   11 ar 
    16   11   12 ar 
    17   12   13 ar 
    18   14   38 1  
    19   14   15 1  
    20   15   16 1  
    21   16   24 1  
    22   16   17 1  
    23   17   18 1  
    24   18   23 ar 
    25   18   19 ar 
    26   19   20 ar 
    27   20   21 ar 
    28   21   22 ar 
    29   22   23 ar 
    30   24   39 2  
    31   24   33 am 
    32   33   25 1  
    33   25   29 1  
    34   25   26 1  
    35   26   28 1  
    36   26   27 1  
    37   29   35 2  
    38   29   34 1  
    39   34   30 1  
    40   30   31 2  
    41   31   35 1  
    42    2   40 1  
    43    2   41 1  
    44    2   42 1  
    45    3   43 1  
    46    3   44 1  
    47    3   45 1  
    48    4   46 1  
    49    4   47 1  
    50    4   48 1  
    51    6   49 1  
    52    7   50 1  
    53    7   51 1  
    54    9   52 1  
    55   10   53 1  
    56   11   54 1  
    57   12   55 1  
    58   13   56 1  
    59   14   57 1  
    60   15   58 1  
    61   15   59 1  
    62   16   60 1  
    63   17   61 1  
    64   17   62 1  
    65   19   63 1  
    66   20   64 1  
    67   21   65 1  
    68   22   66 1  
    69   23   67 1  
    70   25   68 1  
    71   26   69 1  
    72   27   70 1  
    73   27   71 1  
    74   27   72 1  
    75   28   73 1  
    76   28   74 1  
    77   28   75 1  
    78   30   76 1  
    79   31   77 1  
    80   32   78 1  
    81   33   79 1  
    82   34   80 1  
    83   38   81 1  
@<TRIPOS>SUBSTRUCTURE
     1 IM1         1

