### 
### Created by X-TOOL on Mon Sep 10 21:12:51 2018
### 

@<TRIPOS>MOLECULE
1td7_ligand
   28    29     1     0     0
SMALL
GAST_HUCK


@<TRIPOS>ATOM
      1 F3          9.6370   10.8690    6.7250 F         1 NFL        -0.2207
      2 C15        10.9360   11.0920    6.9260 C.3       1 NFL         0.3737
      3 F1         11.5690    9.9370    6.7290 F         1 NFL        -0.2207
      4 F2         11.2370   11.4250    8.1800 F         1 NFL        -0.2207
      5 C9         11.5150   11.9890    5.8520 C.ar      1 NFL         0.0375
      6 C10        10.7960   12.5070    4.7430 C.ar      1 NFL        -0.0095
      7 C11        11.4490   13.2950    3.7630 C.ar      1 NFL         0.0916
      8 C12        12.8150   13.5120    3.9320 C.ar      1 NFL        -0.0091
      9 C13        13.5200   12.9860    5.0110 C.ar      1 NFL        -0.0401
     10 C14        12.8760   12.2240    5.9670 C.ar      1 NFL        -0.0419
     11 N2         10.9080   13.8960    2.6330 N.pl3     1 NFL        -0.2522
     12 C1          9.6240   13.9240    2.1130 C.ar      1 NFL         0.1468
     13 N1          8.6180   13.2880    2.7560 N.ar      1 NFL        -0.2773
     14 C2          9.2600   14.6540    0.8300 C.ar      1 NFL         0.0597
     15 C6         10.2270   15.4370   -0.0590 C.2       1 NFL         0.0643
     16 O8         11.4180   15.5370    0.2140 O.co2     1 NFL        -0.5627
     17 O7          9.8340   15.9900   -1.0890 O.co2     1 NFL        -0.5627
     18 C3          7.9280   14.6030    0.4020 C.ar      1 NFL        -0.0388
     19 C4          6.9800   13.9110    1.1450 C.ar      1 NFL        -0.0435
     20 C5          7.3530   13.2680    2.3120 C.ar      1 NFL        -0.0002
     21 H1          9.7369   12.2976    4.6449 H         1 NFL         0.0749
     22 H2         13.3458   14.1096    3.1997 H         1 NFL         0.0786
     23 H3         14.5834   13.1758    5.1020 H         1 NFL         0.0672
     24 H4         13.4319   11.8126    6.8018 H         1 NFL         0.0766
     25 H5         11.5942   14.4225    2.0737 H         1 NFL         0.2141
     26 H6          7.6353   15.1055   -0.5128 H         1 NFL         0.0735
     27 H7          5.9494   13.8748    0.8110 H         1 NFL         0.0611
     28 H8          6.6022   12.7336    2.8828 H         1 NFL         0.0805
@<TRIPOS>BOND
     1    1    2 1  
     2    2    3 1  
     3    2    4 1  
     4    2    5 1  
     5    5    6 ar 
     6    5   10 ar 
     7    6    7 ar 
     8    7    8 ar 
     9    7   11 1  
    10    8    9 ar 
    11    9   10 ar 
    12   11   12 1  
    13   12   13 ar 
    14   12   14 ar 
    15   13   20 ar 
    16   14   15 1  
    17   14   18 ar 
    18   15   16 ar 
    19   15   17 ar 
    20   18   19 ar 
    21   19   20 ar 
    22    6   21 1  
    23    8   22 1  
    24    9   23 1  
    25   10   24 1  
    26   11   25 1  
    27   18   26 1  
    28   19   27 1  
    29   20   28 1  
@<TRIPOS>SUBSTRUCTURE
     1 NFL         1

