### 
### Created by X-TOOL on Mon Sep 10 21:12:52 2018
### 

@<TRIPOS>MOLECULE
1tfq_ligand
   71    73     1     0     0
SMALL
GAST_HUCK


@<TRIPOS>ATOM
      1 C1         -0.2730  -13.4160    5.8580 C.ar      1 998        -0.0160
      2 C2         -1.6730  -13.9300    6.1460 C.3       1 998         0.0733
      3 C3          0.8140  -13.6500    6.7260 C.ar      1 998        -0.0388
      4 C4         -0.0710  -12.6760    4.6720 C.ar      1 998        -0.0647
      5 N5         -2.6540  -12.8450    5.8910 N.am      1 998        -0.2718
      6 C6         -1.8350  -14.4300    7.6110 C.3       1 998        -0.0193
      7 C7          0.6680  -14.4350    7.9970 C.3       1 998        -0.0213
      8 C8          2.0880  -13.1440    6.4100 C.ar      1 998        -0.0668
      9 C9          1.2050  -12.1740    4.3630 C.ar      1 998        -0.0754
     10 C10        -3.9620  -13.0680    5.7790 C.2       1 998         0.2038
     11 C11        -0.6270  -15.2380    8.0970 C.3       1 998        -0.0405
     12 C12         2.2820  -12.4080    5.2290 C.ar      1 998        -0.0755
     13 C13        -4.8870  -11.8860    5.6090 C.3       1 998         0.1338
     14 O14        -4.4140  -14.2160    5.8300 O.2       1 998        -0.3944
     15 N15        -5.9970  -12.1870    4.6580 N.am      1 998        -0.2498
     16 C16        -5.4860  -11.4790    6.9670 C.3       1 998        -0.0104
     17 C17        -5.9340  -12.5090    3.3490 C.2       1 998         0.2069
     18 C18        -7.2320  -12.0520    5.4300 C.3       1 998         0.0369
     19 C19        -6.9600  -11.2180    6.6700 C.3       1 998        -0.0281
     20 C20        -7.2340  -12.7050    2.5830 C.3       1 998         0.1361
     21 O21        -4.8560  -12.6270    2.7480 O.2       1 998        -0.3942
     22 N22        -7.0580  -12.2410    1.1920 N.am      1 998        -0.2605
     23 C23        -7.6640  -14.1940    2.5870 C.3       1 998         0.0026
     24 C24        -7.7390  -11.1820    0.7430 C.2       1 998         0.2265
     25 C25        -9.0930  -14.2870    3.1160 C.3       1 998        -0.0558
     26 C26        -6.7420  -15.0080    3.4950 C.3       1 998        -0.0558
     27 C27        -7.6210  -14.7660    1.1720 C.3       1 998        -0.0558
     28 C28        -7.5430  -10.7070   -0.6800 C.3       1 998         0.0637
     29 O29        -8.5260  -10.5890    1.4850 O.2       1 998        -0.3907
     30 N30        -8.7020   -9.9110   -1.0970 N.4       1 998         0.2438
     31 C31        -6.2810   -9.8570   -0.7780 C.3       1 998        -0.0039
     32 CNM        -9.6580  -10.7710   -1.7960 C.3       1 998        -0.0428
     33 H1         -1.8811  -14.7700    5.4670 H         1 998         0.0704
     34 H2         -0.9013  -12.4949    3.9991 H         1 998         0.0538
     35 H3         -2.3183  -11.9075    5.7995 H         1 998         0.1880
     36 H4         -2.7303  -15.0665    7.6687 H         1 998         0.0309
     37 H5         -1.9623  -13.5575    8.2686 H         1 998         0.0309
     38 H6          0.7027  -13.7315    8.8419 H         1 998         0.0411
     39 H7          1.5133  -15.1352    8.0680 H         1 998         0.0411
     40 H8          2.9219  -13.3223    7.0792 H         1 998         0.0537
     41 H9          1.3565  -11.6047    3.4530 H         1 998         0.0541
     42 H10        -0.5329  -16.1440    7.4804 H         1 998         0.0288
     43 H11        -0.7886  -15.5241    9.1468 H         1 998         0.0288
     44 H12         3.2653  -12.0209    4.9874 H         1 998         0.0541
     45 H13        -4.3028  -11.0433    5.2108 H         1 998         0.0802
     46 H14        -4.9995  -10.5699    7.3501 H         1 998         0.0313
     47 H15        -5.3748  -12.2912    7.7004 H         1 998         0.0313
     48 H16        -7.5896  -13.0485    5.7286 H         1 998         0.0524
     49 H17        -7.9977  -11.5568    4.8148 H         1 998         0.0524
     50 H18        -7.1368  -10.1507    6.4711 H         1 998         0.0287
     51 H19        -7.5927  -11.5445    7.5085 H         1 998         0.0287
     52 H20        -8.0227  -12.1080    3.0642 H         1 998         0.0805
     53 H21        -6.4265  -12.7212    0.5833 H         1 998         0.1885
     54 H22        -9.4129  -15.3394    3.1249 H         1 998         0.0237
     55 H23        -9.7632  -13.7055    2.4659 H         1 998         0.0237
     56 H24        -9.1325  -13.8832    4.1384 H         1 998         0.0237
     57 H25        -5.7098  -14.9458    3.1200 H         1 998         0.0237
     58 H26        -7.0673  -16.0588    3.5007 H         1 998         0.0237
     59 H27        -6.7854  -14.6051    4.5176 H         1 998         0.0237
     60 H28        -8.2846  -14.1798    0.5193 H         1 998         0.0237
     61 H29        -7.9560  -15.8136    1.1896 H         1 998         0.0237
     62 H30        -6.5915  -14.7166    0.7876 H         1 998         0.0237
     63 H31        -7.4440  -11.5798   -1.3422 H         1 998         0.1096
     64 H32        -8.3990   -9.1741   -1.7144 H         1 998         0.2032
     65 H33        -9.1432   -9.5088   -0.2849 H         1 998         0.2032
     66 H34        -5.4117  -10.4540   -0.4652 H         1 998         0.0310
     67 H35        -6.3782   -8.9793   -0.1221 H         1 998         0.0310
     68 H36        -6.1426   -9.5245   -1.8174 H         1 998         0.0310
     69 H37       -10.5274  -10.1742   -2.1089 H         1 998         0.0777
     70 H38        -9.9886  -11.5752   -1.1222 H         1 998         0.0777
     71 H39        -9.1765  -11.2099   -2.6823 H         1 998         0.0777
@<TRIPOS>BOND
     1    1    2 1  
     2    1    3 ar 
     3    1    4 ar 
     4    2    5 1  
     5    2    6 1  
     6    2   33 1  
     7    3    7 1  
     8    3    8 ar 
     9    4    9 ar 
    10    4   34 1  
    11    5   10 am 
    12    5   35 1  
    13    6   11 1  
    14    6   36 1  
    15    6   37 1  
    16    7   11 1  
    17    7   38 1  
    18    7   39 1  
    19    8   12 ar 
    20    8   40 1  
    21    9   12 ar 
    22    9   41 1  
    23   10   13 1  
    24   10   14 2  
    25   11   42 1  
    26   11   43 1  
    27   12   44 1  
    28   13   15 1  
    29   13   16 1  
    30   13   45 1  
    31   15   17 am 
    32   15   18 1  
    33   16   19 1  
    34   16   46 1  
    35   16   47 1  
    36   17   20 1  
    37   17   21 2  
    38   18   19 1  
    39   18   48 1  
    40   18   49 1  
    41   19   50 1  
    42   19   51 1  
    43   20   22 1  
    44   20   23 1  
    45   20   52 1  
    46   22   24 am 
    47   22   53 1  
    48   23   25 1  
    49   23   26 1  
    50   23   27 1  
    51   24   28 1  
    52   24   29 2  
    53   25   54 1  
    54   25   55 1  
    55   25   56 1  
    56   26   57 1  
    57   26   58 1  
    58   26   59 1  
    59   27   60 1  
    60   27   61 1  
    61   27   62 1  
    62   28   30 1  
    63   28   31 1  
    64   28   63 1  
    65   30   32 1  
    66   30   64 1  
    67   30   65 1  
    68   31   66 1  
    69   31   67 1  
    70   31   68 1  
    71   32   69 1  
    72   32   70 1  
    73   32   71 1  
@<TRIPOS>SUBSTRUCTURE
     1 998         1

