### 
### Created by X-TOOL on Mon Sep 10 21:12:53 2018
### 

@<TRIPOS>MOLECULE
1tft_ligand
   82    85     1     0     0
SMALL
GAST_HUCK


@<TRIPOS>ATOM
      1 C1         -1.0150  -13.2570    5.7930 C.ar      1 997        -0.0160
      2 C2         -2.4590  -13.6470    6.0690 C.3       1 997         0.0733
      3 C3          0.0440  -13.5960    6.6600 C.ar      1 997        -0.0388
      4 C4         -0.7420  -12.5250    4.6160 C.ar      1 997        -0.0647
      5 N5         -3.3250  -12.4570    5.8800 N.am      1 997        -0.2718
      6 C6         -2.6650  -14.1840    7.5170 C.3       1 997        -0.0193
      7 C7         -0.1760  -14.3720    7.9220 C.3       1 997        -0.0213
      8 C8          1.3600  -13.2040    6.3520 C.ar      1 997        -0.0668
      9 C9          0.5740  -12.1370    4.3150 C.ar      1 997        -0.0754
     10 C10        -4.6010  -12.5420    5.5050 C.2       1 997         0.2039
     11 C11        -1.5230  -15.0810    7.9950 C.3       1 997        -0.0405
     12 C12         1.6220  -12.4770    5.1800 C.ar      1 997        -0.0755
     13 C13        -5.3920  -11.2650    5.3430 C.3       1 997         0.1366
     14 O14        -5.1270  -13.6390    5.2950 O.2       1 997        -0.3944
     15 N15        -6.5870  -11.4600    4.4750 N.am      1 997        -0.2469
     16 C16        -5.8460  -10.7460    6.7150 C.3       1 997         0.0204
     17 C17        -6.6370  -11.8320    3.1780 C.2       1 997         0.2070
     18 C18        -7.7470  -11.1590    5.3150 C.3       1 997         0.0675
     19 C19        -7.3080  -10.3590    6.5270 C.3       1 997         0.1058
     20 C20        -7.9920  -11.9330    2.4890 C.3       1 997         0.1361
     21 O21        -5.6120  -12.0820    2.5280 O.2       1 997        -0.3942
     22 N22        -7.8280  -11.6220    1.0530 N.am      1 997        -0.2605
     23 C23        -8.6000  -13.3550    2.6470 C.3       1 997         0.0026
     24 C24        -8.3510  -10.5030    0.5400 C.2       1 997         0.2265
     25 C25        -9.9460  -13.2310    3.3590 C.3       1 997        -0.0558
     26 C26        -7.6760  -14.2400    3.4850 C.3       1 997        -0.0558
     27 C27        -8.8230  -14.0020    1.2820 C.3       1 997        -0.0558
     28 C28        -8.1920  -10.2030   -0.9350 C.3       1 997         0.0637
     29 O29        -8.9640   -9.7140    1.2640 O.2       1 997        -0.3907
     30 N30        -9.2620   -9.3020   -1.3700 N.4       1 997         0.2438
     31 C31        -6.8380   -9.5520   -1.1950 C.3       1 997        -0.0039
     32 CNM       -10.2120  -10.0410   -2.2000 C.3       1 997        -0.0428
     33 OQ2        -8.0930  -10.6790    7.6910 O.3       1 997        -0.3125
     34 C          -8.6170   -9.4900    8.3020 C.ar      1 997         0.0916
     35 C5         -9.9470   -9.4650    8.7420 C.ar      1 997        -0.0331
     36 C14       -10.4640   -8.3130    9.3460 C.ar      1 997        -0.0706
     37 C15        -9.6540   -7.1840    9.5130 C.ar      1 997        -0.0729
     38 C21        -8.3250   -7.2070    9.0750 C.ar      1 997        -0.0706
     39 C22        -7.8060   -8.3590    8.4720 C.ar      1 997        -0.0331
     40 H1         -2.7538  -14.4312    5.3562 H         1 997         0.0704
     41 H2         -1.5503  -12.2620    3.9433 H         1 997         0.0538
     42 H3         -2.9337  -11.5509    6.0412 H         1 997         0.1880
     43 H4         -3.5997  -14.7632    7.5454 H         1 997         0.0309
     44 H5         -2.7446  -13.3256    8.2002 H         1 997         0.0309
     45 H6         -0.1065  -13.6761    8.7710 H         1 997         0.0411
     46 H7          0.6171  -15.1299    8.0032 H         1 997         0.0411
     47 H8          2.1726  -13.4638    7.0207 H         1 997         0.0537
     48 H9          0.7789  -11.5736    3.4119 H         1 997         0.0541
     49 H10        -1.4870  -15.9793    7.3612 H         1 997         0.0288
     50 H11        -1.7141  -15.3752    9.0375 H         1 997         0.0288
     51 H12         2.6370  -12.1783    4.9440 H         1 997         0.0541
     52 H13        -4.7404  -10.5118    4.8761 H         1 997         0.0803
     53 H14        -5.2500   -9.8711    7.0139 H         1 997         0.0342
     54 H15        -5.7495  -11.5331    7.4773 H         1 997         0.0342
     55 H16        -8.2120  -12.0991    5.6465 H         1 997         0.0554
     56 H17        -8.4760  -10.5738    4.7353 H         1 997         0.0554
     57 H18        -7.3956   -9.2813    6.3251 H         1 997         0.0672
     58 H19        -8.6776  -11.2019    2.9423 H         1 997         0.0805
     59 H20        -7.3234  -12.2516    0.4622 H         1 997         0.1885
     60 H21       -10.3906  -14.2299    3.4791 H         1 997         0.0237
     61 H22       -10.6199  -12.5991    2.7619 H         1 997         0.0237
     62 H23        -9.7967  -12.7748    4.3487 H         1 997         0.0237
     63 H24        -6.7032  -14.3357    2.9805 H         1 997         0.0237
     64 H25        -8.1283  -15.2360    3.6012 H         1 997         0.0237
     65 H26        -7.5318  -13.7849    4.4760 H         1 997         0.0237
     66 H27        -9.4875  -13.3658    0.6789 H         1 997         0.0237
     67 H28        -9.2849  -14.9913    1.4162 H         1 997         0.0237
     68 H29        -7.8573  -14.1149    0.7676 H         1 997         0.0237
     69 H30        -8.2555  -11.1427   -1.5033 H         1 997         0.1096
     70 H31        -8.8670   -8.5442   -1.9046 H         1 997         0.2032
     71 H32        -9.7383   -8.9312   -0.5627 H         1 997         0.2032
     72 H33        -6.0362  -10.2302   -0.8677 H         1 997         0.0310
     73 H34        -6.7713   -8.6079   -0.6344 H         1 997         0.0310
     74 H35        -6.7296   -9.3483   -2.2705 H         1 997         0.0310
     75 H36       -11.0160   -9.3653   -2.5272 H         1 997         0.0777
     76 H37       -10.6429  -10.8679   -1.6165 H         1 997         0.0777
     77 H38        -9.6920  -10.4457   -3.0808 H         1 997         0.0777
     78 H39       -10.5761  -10.3385    8.6145 H         1 997         0.0542
     79 H40       -11.4935   -8.2953    9.6850 H         1 997         0.0589
     80 H41       -10.0556   -6.2926    9.9811 H         1 997         0.0523
     81 H42        -7.6972   -6.3325    9.2027 H         1 997         0.0589
     82 H43        -6.7755   -8.3766    8.1360 H         1 997         0.0542
@<TRIPOS>BOND
     1    1    2 1  
     2    1    3 ar 
     3    1    4 ar 
     4    2    5 1  
     5    2    6 1  
     6    2   40 1  
     7    3    7 1  
     8    3    8 ar 
     9    4    9 ar 
    10    4   41 1  
    11    5   10 am 
    12    5   42 1  
    13    6   11 1  
    14    6   43 1  
    15    6   44 1  
    16    7   11 1  
    17    7   45 1  
    18    7   46 1  
    19    8   12 ar 
    20    8   47 1  
    21    9   12 ar 
    22    9   48 1  
    23   10   13 1  
    24   10   14 2  
    25   11   49 1  
    26   11   50 1  
    27   12   51 1  
    28   13   15 1  
    29   13   16 1  
    30   13   52 1  
    31   15   17 am 
    32   15   18 1  
    33   16   19 1  
    34   16   53 1  
    35   16   54 1  
    36   17   20 1  
    37   17   21 2  
    38   18   19 1  
    39   18   55 1  
    40   18   56 1  
    41   19   33 1  
    42   19   57 1  
    43   20   22 1  
    44   20   23 1  
    45   20   58 1  
    46   22   24 am 
    47   22   59 1  
    48   23   25 1  
    49   23   26 1  
    50   23   27 1  
    51   24   28 1  
    52   24   29 2  
    53   25   60 1  
    54   25   61 1  
    55   25   62 1  
    56   26   63 1  
    57   26   64 1  
    58   26   65 1  
    59   27   66 1  
    60   27   67 1  
    61   27   68 1  
    62   28   30 1  
    63   28   31 1  
    64   28   69 1  
    65   30   32 1  
    66   30   70 1  
    67   30   71 1  
    68   31   72 1  
    69   31   73 1  
    70   31   74 1  
    71   32   75 1  
    72   32   76 1  
    73   33   34 1  
    74   34   35 ar 
    75   34   39 ar 
    76   35   36 ar 
    77   32   77 1  
    78   36   37 ar 
    79   35   78 1  
    80   37   38 ar 
    81   36   79 1  
    82   38   39 ar 
    83   37   80 1  
    84   38   81 1  
    85   39   82 1  
@<TRIPOS>SUBSTRUCTURE
     1 997         1

