### 
### Created by X-TOOL on Mon Sep 10 21:12:52 2018
### 

@<TRIPOS>MOLECULE
1tfz_ligand
   57    59     1     0     0
SMALL
GAST_HUCK


@<TRIPOS>ATOM
      1 O30        37.2990   37.4720   52.3400 O.3       1 869        -0.3207
      2 C31        37.3490   36.1570   51.7690 C.3       1 869         0.0597
      3 C24        39.2230   38.8020   51.7340 C.ar      1 869        -0.0323
      4 C25        40.5120   39.2700   52.0120 C.ar      1 869        -0.0632
      5 C26        41.1830   38.8450   53.1830 C.ar      1 869        -0.0284
      6 C27        40.5610   37.9640   54.0510 C.ar      1 869        -0.0632
      7 C28        39.2720   37.5030   53.7710 C.ar      1 869        -0.0323
      8 C29        38.6050   37.9240   52.6090 C.ar      1 869         0.0914
      9 C1         43.5410   38.8610   52.6570 C.ar      1 869        -0.0175
     10 C2         44.8480   39.3390   52.9030 C.ar      1 869         0.0388
     11 C3         45.0640   40.2680   53.9310 C.ar      1 869        -0.0487
     12 C4         44.0120   40.7300   54.7330 C.ar      1 869        -0.0389
     13 C5         42.6860   40.2750   54.5290 C.ar      1 869         0.0916
     14 C6         42.4480   39.3100   53.4540 C.ar      1 869         0.0089
     15 C7         43.3390   37.8200   51.7150 C.3       1 869        -0.0265
     16 C9         46.9410   37.7970   52.5700 C.3       1 869         0.1645
     17 C15        47.9950   37.3700   51.8590 C.2       1 869         0.2429
     18 C18        46.8590   37.4050   53.8810 C.2       1 869         0.0433
     19 N16        48.6900   36.6260   52.7610 N.am      1 869        -0.1606
     20 N17        47.9750   36.6540   54.0260 N.2       1 869        -0.2014
     21 O19        48.2040   37.4520   50.4770 O.2       1 869        -0.3889
     22 C8         45.9790   38.9070   52.0840 C.2       1 869         0.1628
     23 O10        45.8480   39.1190   50.8620 O.2       1 869        -0.3753
     24 S11        41.5240   41.0020   55.3790 S.o2      1 869        -0.0057
     25 O13        40.6190   41.5870   54.5200 O.2       1 869        -0.1694
     26 O12        42.0670   42.0320   56.1110 O.2       1 869        -0.1694
     27 C14        40.6990   39.9780   56.4900 C.3       1 869         0.0598
     28 C20        49.6170   35.5020   52.3890 C.3       1 869         0.0817
     29 C21        48.8050   34.3050   51.9020 C.3       1 869        -0.0328
     30 C22        50.5580   35.9400   51.2870 C.3       1 869        -0.0328
     31 C23        50.5090   35.0720   53.5780 C.3       1 869        -0.0328
     32 H1         36.3266   35.8086   51.5608 H         1 869         0.0578
     33 H2         37.8341   35.4683   52.4763 H         1 869         0.0578
     34 H3         37.9245   36.1857   50.8320 H         1 869         0.0578
     35 H4         38.7093   39.1258   50.8360 H         1 869         0.0545
     36 H5         40.9970   39.9587   51.3297 H         1 869         0.0590
     37 H6         41.0733   37.6322   54.9468 H         1 869         0.0590
     38 H7         38.7844   36.8170   54.4541 H         1 869         0.0545
     39 H8         46.0675   40.6371   54.1092 H         1 869         0.0642
     40 H9         44.2157   41.4460   55.5210 H         1 869         0.0589
     41 H10        44.2849   37.6070   51.1955 H         1 869         0.0409
     42 H11        42.5800   38.1309   50.9820 H         1 869         0.0409
     43 H12        42.9955   36.9147   52.2369 H         1 869         0.0409
     44 H13        46.2898   36.9899   52.2031 H         1 869         0.0936
     45 H14        46.0916   37.6384   54.6176 H         1 869         0.0813
     46 H15        39.9293   40.5576   57.0207 H         1 869         0.0468
     47 H16        41.4175   39.5710   57.2167 H         1 869         0.0468
     48 H17        40.2229   39.1512   55.9426 H         1 869         0.0468
     49 H18        49.4867   33.4853   51.6310 H         1 869         0.0260
     50 H19        48.2140   34.5967   51.0213 H         1 869         0.0260
     51 H20        48.1291   33.9702   52.7027 H         1 869         0.0260
     52 H21        51.2291   35.1085   51.0259 H         1 869         0.0260
     53 H22        51.1540   36.7974   51.6330 H         1 869         0.0260
     54 H23        49.9747   36.2324   50.4014 H         1 869         0.0260
     55 H24        51.1691   34.2505   53.2628 H         1 869         0.0260
     56 H25        49.8735   34.7333   54.4095 H         1 869         0.0260
     57 H26        51.1186   35.9265   53.9069 H         1 869         0.0260
@<TRIPOS>BOND
     1    1    2 1  
     2    8    1 1  
     3    4    3 ar 
     4    3    8 ar 
     5    5    4 ar 
     6    5    6 ar 
     7   14    5 1  
     8    6    7 ar 
     9    7    8 ar 
    10   10    9 ar 
    11    9   14 ar 
    12    9   15 1  
    13   10   11 ar 
    14   22   10 1  
    15   11   12 ar 
    16   12   13 ar 
    17   14   13 ar 
    18   13   24 1  
    19   16   17 1  
    20   16   18 1  
    21   16   22 1  
    22   17   19 am 
    23   17   21 2  
    24   18   20 2  
    25   19   20 1  
    26   19   28 1  
    27   22   23 2  
    28   24   25 2  
    29   24   26 2  
    30   24   27 1  
    31   28   29 1  
    32   28   30 1  
    33   28   31 1  
    34    2   32 1  
    35    2   33 1  
    36    2   34 1  
    37    3   35 1  
    38    4   36 1  
    39    6   37 1  
    40    7   38 1  
    41   11   39 1  
    42   12   40 1  
    43   15   41 1  
    44   15   42 1  
    45   15   43 1  
    46   16   44 1  
    47   18   45 1  
    48   27   46 1  
    49   27   47 1  
    50   27   48 1  
    51   29   49 1  
    52   29   50 1  
    53   29   51 1  
    54   30   52 1  
    55   30   53 1  
    56   30   54 1  
    57   31   55 1  
    58   31   56 1  
    59   31   57 1  
@<TRIPOS>SUBSTRUCTURE
     1 869         1

