### 
### Created by X-TOOL on Mon Sep 10 21:12:51 2018
### 

@<TRIPOS>MOLECULE
1tg5_ligand
   50    52     1     0     0
SMALL
GAST_HUCK


@<TRIPOS>ATOM
      1 O1         48.3660   37.7160   51.3850 O.3       1 645        -0.2917
      2 C1         47.7760   37.4200   52.4320 C.2       1 645         0.2357
      3 C2         46.7150   37.8270   52.8850 C.2       1 645         0.0834
      4 C3         45.7220   38.7610   52.5260 C.2       1 645         0.1300
      5 O2         46.1370   39.3650   51.1190 O.2       1 645        -0.3945
      6 C4         44.9170   39.2020   53.3270 C.ar      1 645         0.0387
      7 C5         43.5060   38.7250   53.1600 C.ar      1 645         0.0599
      8 CL1        43.1070   37.7850   52.0790 Cl        1 645        -0.0647
      9 C6         42.5230   39.2190   54.0290 C.ar      1 645        -0.0175
     10 C7         42.7810   40.2010   55.0780 C.ar      1 645         0.0925
     11 C8         44.1080   40.6280   55.2290 C.ar      1 645        -0.0313
     12 C9         45.1240   40.1540   54.3980 C.ar      1 645        -0.0423
     13 S1         41.6430   40.9740   55.9500 S.o2      1 645        -0.0041
     14 O3         41.1180   40.2230   56.9260 O.2       1 645        -0.1691
     15 O4         42.2070   41.7590   56.9650 O.2       1 645        -0.1691
     16 C10        40.9550   41.8810   54.9540 C.3       1 645         0.0601
     17 C11        46.5160   37.1100   54.1870 C.2       1 645         0.0414
     18 N1         47.6280   36.2880   54.4140 N.2       1 645        -0.2202
     19 N2         48.4120   36.4880   53.2960 N.pl3     1 645        -0.1652
     20 C12        49.6640   35.8080   53.1260 C.3       1 645         0.0868
     21 C13        49.0900   34.3640   52.7300 C.3       1 645        -0.0304
     22 C14        50.6120   36.1130   51.9520 C.3       1 645        -0.0304
     23 C15        50.3840   35.6340   54.4130 C.3       1 645        -0.0304
     24 C16        45.6150   36.9340   55.2060 C.ar      1 645        -0.0015
     25 C17        46.1410   37.5230   56.5110 C.ar      1 645         0.0480
     26 CL2        47.4690   38.1880   56.5670 Cl        1 645        -0.0699
     27 C18        45.1340   37.3100   57.6320 C.ar      1 645        -0.0339
     28 C19        43.9030   36.6690   57.4790 C.ar      1 645         0.0405
     29 CL3        43.1710   36.5730   58.4940 Cl        1 645        -0.0708
     30 C20        43.5870   36.1590   56.1180 C.ar      1 645        -0.0477
     31 C21        44.5050   36.3780   55.1800 C.ar      1 645        -0.0538
     32 H1         47.8454   38.3421   50.8956 H         1 645         0.2607
     33 H2         41.5103   38.8495   53.9151 H         1 645         0.0654
     34 H3         44.3499   41.3418   56.0081 H         1 645         0.0649
     35 H4         46.1302   40.5212   54.5646 H         1 645         0.0668
     36 H5         40.1616   42.4487   55.4622 H         1 645         0.0468
     37 H6         40.5139   41.2744   54.1494 H         1 645         0.0468
     38 H7         41.6891   42.5796   54.5261 H         1 645         0.0468
     39 H8         49.9271   33.6728   52.5525 H         1 645         0.0263
     40 H9         48.4840   34.4484   51.8159 H         1 645         0.0263
     41 H10        48.4652   33.9803   53.5500 H         1 645         0.0263
     42 H11        51.5048   35.4747   52.0263 H         1 645         0.0263
     43 H12        50.9131   37.1703   51.9890 H         1 645         0.0263
     44 H13        50.0956   35.9118   51.0019 H         1 645         0.0263
     45 H14        51.3343   35.1099   54.2335 H         1 645         0.0263
     46 H15        49.7640   35.0429   55.1030 H         1 645         0.0263
     47 H16        50.5871   36.6202   54.8558 H         1 645         0.0263
     48 H17        45.3902   37.6817   58.6175 H         1 645         0.0628
     49 H18        42.6610   35.6383   55.9024 H         1 645         0.0623
     50 H19        44.2304   35.9969   54.2031 H         1 645         0.0619
@<TRIPOS>BOND
     1    1    2 1  
     2    2    3 2  
     3    2   19 1  
     4    3    4 1  
     5    3   17 1  
     6    4    5 2  
     7    4    6 1  
     8    6    7 ar 
     9    6   12 ar 
    10    7    8 1  
    11    7    9 ar 
    12    9   10 ar 
    13   10   11 ar 
    14   10   13 1  
    15   11   12 ar 
    16   13   14 2  
    17   13   15 2  
    18   13   16 1  
    19   17   18 2  
    20   17   24 1  
    21   18   19 1  
    22   19   20 1  
    23   20   21 1  
    24   20   22 1  
    25   20   23 1  
    26   24   25 ar 
    27   24   31 ar 
    28   25   26 1  
    29   25   27 ar 
    30   27   28 ar 
    31   28   29 1  
    32   28   30 ar 
    33   30   31 ar 
    34    1   32 1  
    35    9   33 1  
    36   11   34 1  
    37   12   35 1  
    38   16   36 1  
    39   16   37 1  
    40   16   38 1  
    41   21   39 1  
    42   21   40 1  
    43   21   41 1  
    44   22   42 1  
    45   22   43 1  
    46   22   44 1  
    47   23   45 1  
    48   23   46 1  
    49   23   47 1  
    50   27   48 1  
    51   30   49 1  
    52   31   50 1  
@<TRIPOS>SUBSTRUCTURE
     1 645         1

