### 
### Created by X-TOOL on Mon Sep 10 21:12:45 2018
### 

@<TRIPOS>MOLECULE
1thl_ligand
   65    68     1     0     0
SMALL
GAST_HUCK


@<TRIPOS>ATOM
      1 CH2        35.5430   41.3480   -3.9950 C.3       1 0DB        -0.0261
      2 CA         36.7690   41.8790   -3.1930 C.3       1 0DB         0.0532
      3 CB1        36.8410   43.4220   -3.1790 C.3       1 0DB        -0.0406
      4 CB2        36.4390   41.5760   -1.7150 C.3       1 0DB        -0.0406
      5 CG1        37.4030   43.8070   -1.8070 C.3       1 0DB        -0.0536
      6 CG2        36.8480   42.7470   -0.8270 C.3       1 0DB        -0.0536
      7 C          38.0990   41.2130   -3.5730 C.2       1 0DB         0.2037
      8 O          39.1550   41.8490   -3.7420 O.2       1 0DB        -0.3442
      9 N          38.0680   39.9010   -3.6690 N.am      1 0DB        -0.2692
     10 CA         39.2440   39.1310   -4.0280 C.3       1 0DB         0.0987
     11 C          38.9690   38.0440   -5.0410 C.2       1 0DB         0.0615
     12 O          37.7660   37.7520   -5.2970 O.co2     1 0DB        -0.5665
     13 CB         40.0120   38.6450   -2.7810 C.3       1 0DB        -0.0011
     14 CG         39.2220   37.6670   -1.9910 C.2       1 0DB        -0.0424
     15 CD1        38.1730   37.9490   -1.1820 C.2       1 0DB         0.0166
     16 CD2        39.2520   36.2640   -2.1610 C.ar      1 0DB        -0.0214
     17 NE1        37.6390   36.7790   -0.7110 N.pl3     1 0DB        -0.2891
     18 CE2        38.2530   35.7330   -1.3330 C.ar      1 0DB         0.0603
     19 CE3        39.9570   35.4100   -3.0130 C.ar      1 0DB        -0.0747
     20 CZ2        38.0250   34.3520   -1.2750 C.ar      1 0DB        -0.0443
     21 CZ3        39.7140   34.0570   -2.9770 C.ar      1 0DB        -0.0792
     22 CH2        38.7550   33.5300   -2.1100 C.ar      1 0DB        -0.0768
     23 OXT        39.9730   37.4780   -5.5770 O.co2     1 0DB        -0.5665
     24 CA         35.8660   41.2060   -5.4970 C.3       1 0DB         0.0132
     25 CB1        34.6530   40.5610   -6.1640 C.3       1 0DB        -0.0290
     26 CG         35.0120   39.3030   -6.8230 C.3       1 0DB        -0.0174
     27 CD         33.8400   38.6100   -7.4430 C.ar      1 0DB        -0.0429
     28 CE1        33.6910   38.7090   -8.8210 C.ar      1 0DB        -0.0603
     29 CE2        33.0350   37.7130   -6.7330 C.ar      1 0DB        -0.0603
     30 CZ1        32.6850   38.0300   -9.4880 C.ar      1 0DB        -0.0686
     31 CZ2        32.0530   36.9760   -7.3920 C.ar      1 0DB        -0.0686
     32 CH         31.9210   37.0790   -8.7670 C.ar      1 0DB        -0.0687
     33 CB2        35.9980   42.5270   -6.1730 C.2       1 0DB         0.0379
     34 OG1        35.0420   43.3170   -6.0850 O.co2     1 0DB        -0.5687
     35 OG2        36.9850   42.8650   -6.8590 O.co2     1 0DB        -0.5687
     36 H1         34.7058   42.0513   -3.8748 H         1 0DB         0.0277
     37 H2         35.2551   40.3637   -3.5971 H         1 0DB         0.0277
     38 H3         35.8380   43.8525   -3.3154 H         1 0DB         0.0257
     39 H4         37.5059   43.7807   -3.9785 H         1 0DB         0.0257
     40 H5         36.9844   40.6744   -1.3995 H         1 0DB         0.0257
     41 H6         35.3572   41.4047   -1.6131 H         1 0DB         0.0257
     42 H7         37.0629   44.8129   -1.5197 H         1 0DB         0.0264
     43 H8         38.5026   43.7814   -1.8200 H         1 0DB         0.0264
     44 H9         37.6229   42.4381   -0.1100 H         1 0DB         0.0264
     45 H10        35.9788   43.1415   -0.2803 H         1 0DB         0.0264
     46 H11        37.2093   39.4210   -3.4894 H         1 0DB         0.1882
     47 H12        39.9185   39.8364   -4.5354 H         1 0DB         0.0743
     48 H13        40.2428   39.5123   -2.1450 H         1 0DB         0.0390
     49 H14        40.9488   38.1674   -3.1039 H         1 0DB         0.0390
     50 H15        37.8113   38.9482   -0.9437 H         1 0DB         0.0795
     51 H16        36.8952   36.7021   -0.0027 H         1 0DB         0.2216
     52 H17        40.6928   35.8125   -3.6998 H         1 0DB         0.0540
     53 H18        37.2928   33.9387   -0.5908 H         1 0DB         0.0541
     54 H19        40.2721   33.3936   -3.6277 H         1 0DB         0.0510
     55 H20        38.5811   32.4602   -2.0922 H         1 0DB         0.0530
     56 H21        36.7765   40.6042   -5.6346 H         1 0DB         0.0466
     57 H22        34.2460   41.2547   -6.9144 H         1 0DB         0.0307
     58 H23        33.8890   40.3589   -5.3989 H         1 0DB         0.0307
     59 H24        35.4604   38.6318   -6.0757 H         1 0DB         0.0427
     60 H25        35.7484   39.5184   -7.6112 H         1 0DB         0.0427
     61 H26        34.3764   39.3306   -9.3856 H         1 0DB         0.0557
     62 H27        33.1757   37.5906   -5.6652 H         1 0DB         0.0557
     63 H28        32.4868   38.2214  -10.5364 H         1 0DB         0.0599
     64 H29        31.3942   36.3238   -6.8301 H         1 0DB         0.0599
     65 H30        31.2308   36.4298   -9.2934 H         1 0DB         0.0559
@<TRIPOS>BOND
     1    1    2 1  
     2    1   24 1  
     3    2    3 1  
     4    2    4 1  
     5    2    7 1  
     6    3    5 1  
     7    4    6 1  
     8    5    6 1  
     9    7    8 2  
    10    7    9 am 
    11    9   10 1  
    12   10   11 1  
    13   10   13 1  
    14   11   12 ar 
    15   11   23 ar 
    16   13   14 1  
    17   14   15 2  
    18   14   16 1  
    19   15   17 1  
    20   16   18 ar 
    21   16   19 ar 
    22   17   18 1  
    23   18   20 ar 
    24   19   21 ar 
    25   20   22 ar 
    26   21   22 ar 
    27   24   25 1  
    28   24   33 1  
    29   25   26 1  
    30   26   27 1  
    31   27   28 ar 
    32   27   29 ar 
    33   28   30 ar 
    34   29   31 ar 
    35   30   32 ar 
    36   31   32 ar 
    37   33   34 ar 
    38   33   35 ar 
    39    1   36 1  
    40    1   37 1  
    41    3   38 1  
    42    3   39 1  
    43    4   40 1  
    44    4   41 1  
    45    5   42 1  
    46    5   43 1  
    47    6   44 1  
    48    6   45 1  
    49    9   46 1  
    50   10   47 1  
    51   13   48 1  
    52   13   49 1  
    53   15   50 1  
    54   17   51 1  
    55   19   52 1  
    56   20   53 1  
    57   21   54 1  
    58   22   55 1  
    59   24   56 1  
    60   25   57 1  
    61   25   58 1  
    62   26   59 1  
    63   26   60 1  
    64   28   61 1  
    65   29   62 1  
    66   30   63 1  
    67   31   64 1  
    68   32   65 1  
@<TRIPOS>SUBSTRUCTURE
     1 0DB         1

