### 
### Created by X-TOOL on Mon Sep 10 21:12:51 2018
### 

@<TRIPOS>MOLECULE
1tkt_ligand
   44    46     1     0     0
SMALL
GAST_HUCK


@<TRIPOS>ATOM
      1 CA          2.1270  -36.3630   22.7920 C.3       1 H12         0.0813
      2 CB          3.6500  -35.9490   23.0730 C.3       1 H12        -0.0221
      3 CC          3.8040  -34.7460   24.0390 C.3       1 H12        -0.0503
      4 CD          3.1210  -35.0430   25.3880 C.3       1 H12        -0.0529
      5 CE          1.5990  -35.2470   25.1920 C.3       1 H12        -0.0503
      6 CF          1.2820  -36.3820   24.1780 C.3       1 H12        -0.0221
      7 N1          1.2040  -36.9740   17.8230 N.am      1 H12        -0.2340
      8 C6          2.4610  -37.4150   18.2550 C.2       1 H12         0.1985
      9 O2          3.3780  -37.6170   17.4450 O.2       1 H12        -0.4128
     10 C5          2.6810  -37.5850   19.6970 C.2       1 H12         0.0443
     11 C4          1.6630  -37.2820   20.5980 C.2       1 H12         0.1047
     12 O4          1.8900  -37.5100   21.9700 O.3       1 H12        -0.3162
     13 C2          0.1980  -36.7050   18.7310 C.ar      1 H12         0.0858
     14 C3          0.4270  -36.8460   20.1360 C.ar      1 H12         0.0392
     15 C7         -0.6410  -36.5600   21.0330 C.ar      1 H12        -0.0476
     16 C8         -1.8890  -36.1390   20.5620 C.ar      1 H12         0.0268
     17 C9         -2.1070  -36.0100   19.1860 C.ar      1 H12        -0.0593
     18 C10        -1.0520  -36.2930   18.2630 C.ar      1 H12        -0.0355
     19 CL         -3.1250  -35.7350   21.6560 Cl        1 H12        -0.0832
     20 C11         3.9630  -38.2680   20.1630 C.3       1 H12        -0.0244
     21 C12         3.8270  -39.7790   20.0660 C.3       1 H12        -0.0505
     22 C13         3.3490  -40.3840   21.3790 C.3       1 H12        -0.0640
     23 H1          1.7153  -35.5265   22.2083 H         1 H12         0.0651
     24 H2          4.1204  -35.6860   22.1141 H         1 H12         0.0294
     25 H3          4.1693  -36.8141   23.5111 H         1 H12         0.0294
     26 H4          3.3397  -33.8573   23.5866 H         1 H12         0.0266
     27 H5          4.8736  -34.5541   24.2098 H         1 H12         0.0266
     28 H6          3.2877  -34.1978   26.0720 H         1 H12         0.0265
     29 H7          3.5558  -35.9561   25.8206 H         1 H12         0.0265
     30 H8          1.1611  -34.3086   24.8209 H         1 H12         0.0266
     31 H9          1.1485  -35.5034   26.1622 H         1 H12         0.0266
     32 H10         1.4782  -37.3423   24.6774 H         1 H12         0.0294
     33 H11         0.2146  -36.3137   23.9211 H         1 H12         0.0294
     34 H12         1.0324  -36.8523   16.8454 H         1 H12         0.2343
     35 H13        -0.4842  -36.6705   22.0999 H         1 H12         0.0596
     36 H14        -3.0771  -35.6950   18.8190 H         1 H12         0.0591
     37 H15        -1.2227  -36.1876   17.1977 H         1 H12         0.0516
     38 H16         4.1625  -37.9889   21.2081 H         1 H12         0.0365
     39 H17         4.7996  -37.9385   19.5294 H         1 H12         0.0365
     40 H18         4.8062  -40.2099   19.8100 H         1 H12         0.0278
     41 H19         3.1014  -40.0222   19.2758 H         1 H12         0.0278
     42 H20         3.2630  -41.4752   21.2701 H         1 H12         0.0231
     43 H21         2.3670  -39.9631   21.6407 H         1 H12         0.0231
     44 H22         4.0717  -40.1509   22.1748 H         1 H12         0.0231
@<TRIPOS>BOND
     1    1    2 1  
     2    1    6 1  
     3   12    1 1  
     4    2    3 1  
     5    3    4 1  
     6    5    4 1  
     7    6    5 1  
     8    8    7 am 
     9    7   13 1  
    10    8    9 2  
    11   10    8 1  
    12   11   10 2  
    13   10   20 1  
    14   11   12 1  
    15   11   14 1  
    16   13   14 ar 
    17   13   18 ar 
    18   14   15 ar 
    19   15   16 ar 
    20   16   17 ar 
    21   16   19 1  
    22   17   18 ar 
    23   20   21 1  
    24   21   22 1  
    25    1   23 1  
    26    2   24 1  
    27    2   25 1  
    28    3   26 1  
    29    3   27 1  
    30    4   28 1  
    31    4   29 1  
    32    5   30 1  
    33    5   31 1  
    34    6   32 1  
    35    6   33 1  
    36    7   34 1  
    37   15   35 1  
    38   17   36 1  
    39   18   37 1  
    40   20   38 1  
    41   20   39 1  
    42   21   40 1  
    43   21   41 1  
    44   22   42 1  
    45   22   43 1  
    46   22   44 1  
@<TRIPOS>SUBSTRUCTURE
     1 H12         1

