### 
### Created by X-TOOL on Mon Sep 10 21:12:51 2018
### 

@<TRIPOS>MOLECULE
1tkx_ligand
   37    39     1     0     0
SMALL
GAST_HUCK


@<TRIPOS>ATOM
      1 CA          0.7730  -34.6330   26.1380 C.1       1 GWB         0.0962
      2 CB          1.2680  -33.7150   26.6210 C.1       1 GWB        -0.0993
      3 CC          1.9960  -32.3710   27.3240 C.3       1 GWB         0.0041
      4 CD          2.0490  -31.3850   26.2340 C.3       1 GWB        -0.0430
      5 CE          0.9700  -31.3220   27.2890 C.3       1 GWB        -0.0430
      6 N1         -0.7720  -35.3280   21.4040 N.am      1 GWB        -0.2360
      7 C6          0.3650  -36.0650   21.7680 C.2       1 GWB         0.1993
      8 O2          1.0670  -36.5610   20.8800 O.2       1 GWB        -0.4127
      9 C5          0.6740  -36.2230   23.2290 C.2       1 GWB         0.0530
     10 C4         -0.1910  -35.6460   24.1620 C.2       1 GWB         0.1414
     11 O4          0.1220  -35.7660   25.5290 O.3       1 GWB        -0.2071
     12 C2         -1.6080  -34.7560   22.3360 C.ar      1 GWB         0.0822
     13 C3         -1.3290  -34.9200   23.7460 C.ar      1 GWB         0.0419
     14 C7         -2.1850  -34.2800   24.6860 C.ar      1 GWB        -0.0283
     15 C8         -3.2750  -33.4880   24.2510 C.ar      1 GWB         0.1184
     16 C9         -3.5390  -33.3250   22.8610 C.ar      1 GWB        -0.0391
     17 C10        -2.7080  -33.9620   21.9050 C.ar      1 GWB        -0.0371
     18 F          -4.0710  -32.8640   25.1850 F         1 GWB        -0.1949
     19 C11         1.9570  -36.9190   23.7480 C.3       1 GWB        -0.0168
     20 C12         3.2490  -36.4900   23.0410 C.3       1 GWB        -0.0570
     21 C13         1.8240  -38.4430   23.8350 C.3       1 GWB        -0.0570
     22 H1          2.7475  -32.5309   28.1112 H         1 GWB         0.0378
     23 H2          1.7995  -31.6842   25.2053 H         1 GWB         0.0273
     24 H3          2.8459  -30.6271   26.2124 H         1 GWB         0.0273
     25 H4          0.9771  -30.5172   28.0389 H         1 GWB         0.0273
     26 H5         -0.0693  -31.5743   27.0318 H         1 GWB         0.0273
     27 H6         -0.9825  -35.2142   20.4331 H         1 GWB         0.2329
     28 H7         -2.0002  -34.4004   25.7473 H         1 GWB         0.0570
     29 H8         -4.3736  -32.7151   22.5346 H         1 GWB         0.0578
     30 H9         -2.9102  -33.8444   20.8465 H         1 GWB         0.0509
     31 H10         2.0681  -36.5739   24.7865 H         1 GWB         0.0399
     32 H11         4.1017  -37.0335   23.4740 H         1 GWB         0.0249
     33 H12         3.3980  -35.4083   23.1740 H         1 GWB         0.0249
     34 H13         3.1739  -36.7206   21.9681 H         1 GWB         0.0249
     35 H14         0.8856  -38.7004   24.3480 H         1 GWB         0.0249
     36 H15         2.6746  -38.8537   24.3987 H         1 GWB         0.0249
     37 H16         1.8162  -38.8689   22.8208 H         1 GWB         0.0249
@<TRIPOS>BOND
     1    1    2 3  
     2   11    1 1  
     3    2    3 1  
     4    3    4 1  
     5    3    5 1  
     6    5    4 1  
     7    7    6 am 
     8    6   12 1  
     9    7    8 2  
    10    9    7 1  
    11   10    9 2  
    12    9   19 1  
    13   10   11 1  
    14   10   13 1  
    15   12   13 ar 
    16   12   17 ar 
    17   13   14 ar 
    18   14   15 ar 
    19   15   16 ar 
    20   15   18 1  
    21   16   17 ar 
    22   19   20 1  
    23   19   21 1  
    24    3   22 1  
    25    4   23 1  
    26    4   24 1  
    27    5   25 1  
    28    5   26 1  
    29    6   27 1  
    30   14   28 1  
    31   16   29 1  
    32   17   30 1  
    33   19   31 1  
    34   20   32 1  
    35   20   33 1  
    36   20   34 1  
    37   21   35 1  
    38   21   36 1  
    39   21   37 1  
@<TRIPOS>SUBSTRUCTURE
     1 GWB         1

