### 
### Created by X-TOOL on Mon Sep 10 21:12:51 2018
### 

@<TRIPOS>MOLECULE
1tkz_ligand
   44    46     1     0     0
SMALL
GAST_HUCK


@<TRIPOS>ATOM
      1 CA          2.5250  -36.1120   23.0990 C.3       1 H16         0.0182
      2 CB          4.0300  -36.1670   23.4990 C.3       1 H16        -0.0390
      3 CC          4.4440  -34.9640   24.3630 C.3       1 H16        -0.0519
      4 CD          3.6640  -34.9480   25.6650 C.3       1 H16        -0.0530
      5 CE          2.1580  -34.7830   25.4080 C.3       1 H16        -0.0519
      6 CF          1.5800  -35.8180   24.3620 C.3       1 H16        -0.0390
      7 N1          1.3350  -37.0170   17.8490 N.am      1 H16        -0.2322
      8 C6          2.5640  -37.5470   18.2750 C.2       1 H16         0.2060
      9 O2          3.4380  -37.8530   17.4410 O.2       1 H16        -0.4069
     10 C5          2.7660  -37.7600   19.7400 C.2       1 H16         0.0333
     11 C4          1.7600  -37.4150   20.6290 C.2       1 H16         0.0288
     12 S4          2.0220  -37.7240   22.4120 S.3       1 H16        -0.1009
     13 C2          0.3410  -36.6970   18.7630 C.ar      1 H16         0.0841
     14 C3          0.5560  -36.8940   20.1720 C.ar      1 H16         0.0183
     15 C7         -0.4910  -36.5890   21.0750 C.ar      1 H16        -0.0500
     16 C8         -1.7240  -36.1110   20.6050 C.ar      1 H16         0.0264
     17 C9         -1.9320  -35.9280   19.2310 C.ar      1 H16        -0.0596
     18 C10        -0.8920  -36.2220   18.3010 C.ar      1 H16        -0.0357
     19 CL         -2.9710  -35.7450   21.7040 Cl        1 H16        -0.0832
     20 C11         4.0150  -38.4670   20.2460 C.3       1 H16        -0.0206
     21 C12         3.8790  -40.0000   20.0820 C.3       1 H16        -0.0489
     22 C13         3.5340  -40.7230   21.4070 C.3       1 H16        -0.0638
     23 H1          2.3838  -35.3232   22.3455 H         1 H16         0.0438
     24 H2          4.6402  -36.1729   22.5838 H         1 H16         0.0278
     25 H3          4.2123  -37.0910   24.0672 H         1 H16         0.0278
     26 H4          4.2426  -34.0350   23.8095 H         1 H16         0.0266
     27 H5          5.5189  -35.0321   24.5864 H         1 H16         0.0266
     28 H6          4.0163  -34.1099   26.2842 H         1 H16         0.0265
     29 H7          3.8355  -35.8950   26.1978 H         1 H16         0.0265
     30 H8          1.9789  -33.7666   25.0275 H         1 H16         0.0266
     31 H9          1.6253  -34.9169   26.3611 H         1 H16         0.0266
     32 H10         1.4056  -36.7696   24.8855 H         1 H16         0.0278
     33 H11         0.6234  -35.4250   23.9873 H         1 H16         0.0278
     34 H12         1.1740  -36.8682   16.8733 H         1 H16         0.2349
     35 H13        -0.3388  -36.7260   22.1395 H         1 H16         0.0590
     36 H14        -2.8876  -35.5614   18.8739 H         1 H16         0.0589
     37 H15        -1.0557  -36.0781   17.2391 H         1 H16         0.0516
     38 H16         4.1588  -38.2289   21.3102 H         1 H16         0.0388
     39 H17         4.8856  -38.1181   19.6713 H         1 H16         0.0388
     40 H18         4.8322  -40.3978   19.7038 H         1 H16         0.0281
     41 H19         3.0811  -40.2050   19.3531 H         1 H16         0.0281
     42 H20         3.4516  -41.8045   21.2238 H         1 H16         0.0231
     43 H21         2.5771  -40.3427   21.7939 H         1 H16         0.0231
     44 H22         4.3282  -40.5356   22.1446 H         1 H16         0.0231
@<TRIPOS>BOND
     1    1    2 1  
     2    1    6 1  
     3   12    1 1  
     4    2    3 1  
     5    3    4 1  
     6    5    4 1  
     7    6    5 1  
     8    8    7 am 
     9    7   13 1  
    10    8    9 2  
    11   10    8 1  
    12   11   10 2  
    13   10   20 1  
    14   11   12 1  
    15   11   14 1  
    16   13   14 ar 
    17   13   18 ar 
    18   14   15 ar 
    19   15   16 ar 
    20   16   17 ar 
    21   16   19 1  
    22   17   18 ar 
    23   20   21 1  
    24   21   22 1  
    25    1   23 1  
    26    2   24 1  
    27    2   25 1  
    28    3   26 1  
    29    3   27 1  
    30    4   28 1  
    31    4   29 1  
    32    5   30 1  
    33    5   31 1  
    34    6   32 1  
    35    6   33 1  
    36    7   34 1  
    37   15   35 1  
    38   17   36 1  
    39   18   37 1  
    40   20   38 1  
    41   20   39 1  
    42   21   40 1  
    43   21   41 1  
    44   22   42 1  
    45   22   43 1  
    46   22   44 1  
@<TRIPOS>SUBSTRUCTURE
     1 H16         1

