### 
### Created by X-TOOL on Mon Sep 10 21:12:52 2018
### 

@<TRIPOS>MOLECULE
1tl1_ligand
   45    47     1     0     0
SMALL
GAST_HUCK


@<TRIPOS>ATOM
      1 CA          2.2930  -35.9620   23.6580 C.3       1 H18         0.0385
      2 CB          3.8350  -35.7750   23.6930 C.3       1 H18        -0.0385
      3 CC          4.1540  -34.4270   24.3520 C.3       1 H18        -0.0520
      4 CD          3.8590  -34.5640   25.8570 C.3       1 H18        -0.0530
      5 CE          2.3780  -34.9640   26.1940 C.3       1 H18        -0.0520
      6 CF          1.5870  -35.7850   25.0900 C.3       1 H18        -0.0385
      7 N1          0.9710  -36.8560   18.4110 N.am      1 H18        -0.2290
      8 C6          2.2840  -37.3580   18.7650 C.2       1 H18         0.2204
      9 O2          3.1610  -37.5850   17.8380 O.2       1 H18        -0.3972
     10 C5          2.5520  -37.5950   20.2560 C.2       1 H18         0.0459
     11 C4          1.5140  -37.3110   21.2090 C.2       1 H18         0.0524
     12 S4          1.8440  -37.5910   22.9300 S.o       1 H18         0.0533
     13 C2         -0.0350  -36.5870   19.3760 C.ar      1 H18         0.0838
     14 C3          0.2350  -36.8180   20.8120 C.ar      1 H18         0.0152
     15 C7         -0.8230  -36.5280   21.7690 C.ar      1 H18        -0.0514
     16 C8         -2.0790  -36.0420   21.3060 C.ar      1 H18         0.0257
     17 C9         -2.3090  -35.8320   19.9150 C.ar      1 H18        -0.0601
     18 C10        -1.2970  -36.1010   18.9500 C.ar      1 H18        -0.0361
     19 CL         -3.3250  -35.7010   22.3840 Cl        1 H18        -0.0832
     20 C11         3.9230  -38.1300   20.7180 C.3       1 H18        -0.0119
     21 C12         3.9100  -39.6550   20.5600 C.3       1 H18        -0.0461
     22 C13         3.4550  -40.4250   21.8220 C.3       1 H18        -0.0634
     23 OS          0.6250  -38.1530   23.6120 O.2       1 H18        -0.2529
     24 H1          1.8898  -35.1790   22.9990 H         1 H18         0.0439
     25 H2          4.2326  -35.7885   22.6675 H         1 H18         0.0277
     26 H3          4.2931  -36.5885   24.2746 H         1 H18         0.0277
     27 H4          3.5235  -33.6378   23.9164 H         1 H18         0.0266
     28 H5          5.2139  -34.1759   24.1988 H         1 H18         0.0266
     29 H6          4.0727  -33.5985   26.3388 H         1 H18         0.0265
     30 H7          4.5260  -35.3353   26.2696 H         1 H18         0.0265
     31 H8          1.8180  -34.0363   26.3829 H         1 H18         0.0266
     32 H9          2.3984  -35.5730   27.1098 H         1 H18         0.0266
     33 H10         1.4034  -36.7912   25.4947 H         1 H18         0.0277
     34 H11         0.6263  -35.2755   24.9243 H         1 H18         0.0277
     35 H12         0.7651  -36.6922   17.4462 H         1 H18         0.2359
     36 H13        -0.6556  -36.6813   22.8290 H         1 H18         0.0581
     37 H14        -3.2726  -35.4605   19.5855 H         1 H18         0.0584
     38 H15        -1.4903  -35.9352   17.8963 H         1 H18         0.0514
     39 H16         4.0921  -37.8647   21.7721 H         1 H18         0.0429
     40 H17         4.7217  -37.6967   20.0981 H         1 H18         0.0429
     41 H18         4.9286  -39.9831   20.3056 H         1 H18         0.0285
     42 H19         3.2264  -39.9097   19.7367 H         1 H18         0.0285
     43 H20         3.4761  -41.5060   21.6194 H         1 H18         0.0231
     44 H21         2.4316  -40.1216   22.0876 H         1 H18         0.0231
     45 H22         4.1338  -40.1951   22.6565 H         1 H18         0.0231
@<TRIPOS>BOND
     1    1    2 1  
     2    1    6 1  
     3   12    1 1  
     4    2    3 1  
     5    3    4 1  
     6    5    4 1  
     7    6    5 1  
     8    8    7 am 
     9    7   13 1  
    10    8    9 2  
    11   10    8 1  
    12   11   10 2  
    13   10   20 1  
    14   11   12 1  
    15   11   14 1  
    16   12   23 2  
    17   13   14 ar 
    18   13   18 ar 
    19   14   15 ar 
    20   15   16 ar 
    21   16   17 ar 
    22   16   19 1  
    23   17   18 ar 
    24   20   21 1  
    25   21   22 1  
    26    1   24 1  
    27    2   25 1  
    28    2   26 1  
    29    3   27 1  
    30    3   28 1  
    31    4   29 1  
    32    4   30 1  
    33    5   31 1  
    34    5   32 1  
    35    6   33 1  
    36    6   34 1  
    37    7   35 1  
    38   15   36 1  
    39   17   37 1  
    40   18   38 1  
    41   20   39 1  
    42   20   40 1  
    43   21   41 1  
    44   21   42 1  
    45   22   43 1  
    46   22   44 1  
    47   22   45 1  
@<TRIPOS>SUBSTRUCTURE
     1 H18         1

