### 
### Created by X-TOOL on Mon Sep 10 21:12:51 2018
### 

@<TRIPOS>MOLECULE
1tl3_ligand
   44    46     1     0     0
SMALL
GAST_HUCK


@<TRIPOS>ATOM
      1 CA          1.7470  -36.2970   22.9900 C.3       1 H20         0.0813
      2 CB          3.2980  -36.2200   23.4220 C.3       1 H20        -0.0221
      3 CC          3.6290  -35.0170   24.2910 C.3       1 H20        -0.0503
      4 CD          2.8810  -35.1160   25.5880 C.3       1 H20        -0.0529
      5 CE          1.3810  -34.9300   25.3560 C.3       1 H20        -0.0503
      6 CF          0.7790  -35.9160   24.2690 C.3       1 H20        -0.0221
      7 N1          0.7080  -37.0310   18.0430 N.am      1 H20        -0.2340
      8 C6          1.8470  -37.6930   18.4820 C.2       1 H20         0.1988
      9 O2          2.6940  -38.0800   17.6570 O.2       1 H20        -0.4128
     10 C5          2.0490  -37.8820   19.9320 C.2       1 H20         0.0468
     11 C4          1.1080  -37.3450   20.8310 C.2       1 H20         0.1049
     12 O4          1.3080  -37.4730   22.2570 O.3       1 H20        -0.3162
     13 C2         -0.2180  -36.5540   18.9210 C.ar      1 H20         0.0858
     14 C3         -0.0300  -36.7040   20.3290 C.ar      1 H20         0.0392
     15 C7         -1.0810  -36.2930   21.1840 C.ar      1 H20        -0.0476
     16 C8         -2.2680  -35.7640   20.6700 C.ar      1 H20         0.0268
     17 C9         -2.4410  -35.6230   19.2960 C.ar      1 H20        -0.0593
     18 C10        -1.4090  -36.0190   18.4150 C.ar      1 H20        -0.0355
     19 CL         -3.4920  -35.2840   21.7150 Cl        1 H20        -0.0832
     20 C11         3.1660  -38.8600   20.3430 C.3       1 H20        -0.0179
     21 C12         4.5290  -38.2030   20.6020 C.3       1 H20        -0.0572
     22 C13         2.7580  -39.9620   21.3560 C.3       1 H20        -0.0572
     23 H1          1.6185  -35.4740   22.2716 H         1 H20         0.0651
     24 H2          3.9109  -36.1693   22.5100 H         1 H20         0.0294
     25 H3          3.5487  -37.1330   23.9820 H         1 H20         0.0294
     26 H4          3.3355  -34.0949   23.7679 H         1 H20         0.0266
     27 H5          4.7103  -34.9962   24.4920 H         1 H20         0.0266
     28 H6          3.2408  -34.3351   26.2741 H         1 H20         0.0265
     29 H7          3.0584  -36.1059   26.0337 H         1 H20         0.0265
     30 H8          1.2063  -33.8964   25.0225 H         1 H20         0.0266
     31 H9          0.8580  -35.1014   26.3084 H         1 H20         0.0266
     32 H10         0.5185  -36.8547   24.7799 H         1 H20         0.0294
     33 H11        -0.1338  -35.4512   23.8681 H         1 H20         0.0294
     34 H12         0.5645  -36.9017   17.0618 H         1 H20         0.2343
     35 H13        -0.9628  -36.3905   22.2571 H         1 H20         0.0596
     36 H14        -3.3636  -35.2111   18.9032 H         1 H20         0.0591
     37 H15        -1.5399  -35.9082   17.3447 H         1 H20         0.0516
     38 H16         3.3407  -39.4327   19.4202 H         1 H20         0.0395
     39 H17         5.2593  -38.9742   20.8880 H         1 H20         0.0248
     40 H18         4.4335  -37.4688   21.4155 H         1 H20         0.0248
     41 H19         4.8709  -37.6952   19.6881 H         1 H20         0.0248
     42 H20         1.7720  -40.3652   21.0818 H         1 H20         0.0248
     43 H21         2.7097  -39.5311   22.3669 H         1 H20         0.0248
     44 H22         3.5030  -40.7711   21.3375 H         1 H20         0.0248
@<TRIPOS>BOND
     1    1    2 1  
     2    1    6 1  
     3   12    1 1  
     4    2    3 1  
     5    3    4 1  
     6    5    4 1  
     7    6    5 1  
     8    8    7 am 
     9    7   13 1  
    10    8    9 2  
    11   10    8 1  
    12   11   10 2  
    13   10   20 1  
    14   11   12 1  
    15   11   14 1  
    16   13   14 ar 
    17   13   18 ar 
    18   14   15 ar 
    19   15   16 ar 
    20   16   17 ar 
    21   16   19 1  
    22   17   18 ar 
    23   20   21 1  
    24   20   22 1  
    25    1   23 1  
    26    2   24 1  
    27    2   25 1  
    28    3   26 1  
    29    3   27 1  
    30    4   28 1  
    31    4   29 1  
    32    5   30 1  
    33    5   31 1  
    34    6   32 1  
    35    6   33 1  
    36    7   34 1  
    37   15   35 1  
    38   17   36 1  
    39   18   37 1  
    40   20   38 1  
    41   21   39 1  
    42   21   40 1  
    43   21   41 1  
    44   22   42 1  
    45   22   43 1  
    46   22   44 1  
@<TRIPOS>SUBSTRUCTURE
     1 H20         1

