### 
### Created by X-TOOL on Mon Sep 10 21:12:51 2018
### 

@<TRIPOS>MOLECULE
1tl9_ligand
   71    70     1     0     0
SMALL
GAST_HUCK


@<TRIPOS>ATOM
      1 C          37.3180   21.4640   37.1170 C.2       1 ACE         0.1751
      2 O          37.2960   20.3850   36.5090 O.2       1 ACE        -0.3972
      3 CH3        38.5750   22.2710   37.1810 C.3       1 ACE         0.0258
      4 N          36.2640   21.9710   37.7650 N.am      1 LEU        -0.2658
      5 CA         34.9630   21.3030   37.7850 C.3       1 LEU         0.1311
      6 C          34.3090   21.3980   36.4170 C.2       1 LEU         0.2039
      7 O          34.3570   22.4410   35.7560 O.2       1 LEU        -0.3944
      8 CB         34.0460   21.9010   38.8580 C.3       1 LEU        -0.0101
      9 CG         34.5150   21.8090   40.3170 C.3       1 LEU        -0.0425
     10 CD1        33.5760   22.6050   41.1970 C.3       1 LEU        -0.0625
     11 CD2        34.5980   20.3630   40.7980 C.3       1 LEU        -0.0625
     12 N          33.7890   20.2620   35.9670 N.am      1 LEU        -0.2637
     13 CA         33.1490   20.1560   34.6660 C.3       1 LEU         0.1311
     14 C          31.6410   20.0940   34.8260 C.2       1 LEU         0.2020
     15 O          31.1330   19.5310   35.7990 O.2       1 LEU        -0.3945
     16 CB         33.6580   18.9070   33.9270 C.3       1 LEU        -0.0101
     17 CG         35.1790   18.6790   33.8550 C.3       1 LEU        -0.0425
     18 CD1        35.4780   17.3340   33.2600 C.3       1 LEU        -0.0625
     19 CD2        35.8730   19.7860   33.0730 C.3       1 LEU        -0.0625
     20 N          30.9380   20.7050   33.8780 N.am      1 AR7        -0.2798
     21 CA         29.4810   20.7220   33.8810 C.3       1 AR7         0.0652
     22 C          28.8010   19.7290   32.7490 C.3       1 AR7         0.0671
     23 O          27.6190   19.4090   32.4930 O.3       1 AR7        -0.3927
     24 CB         28.9370   22.1390   33.7810 C.3       1 AR7        -0.0246
     25 CG         28.7760   22.8230   35.1170 C.3       1 AR7        -0.0176
     26 CD         28.0290   24.1320   34.9590 C.3       1 AR7         0.0626
     27 NE         26.6650   23.9540   34.4680 N.pl3     1 AR7        -0.2723
     28 CZ         25.5760   24.0550   35.2260 C.cat     1 AR7         0.2882
     29 NH1        24.3790   23.8740   34.6860 N.pl3     1 AR7        -0.2849
     30 NH2        25.6790   24.3290   36.5210 N.pl3     1 AR7        -0.2849
     31 H1         38.3929   23.1879   37.7609 H         1 ACE         0.0467
     32 H2         38.8914   22.5384   36.1620 H         1 ACE         0.0467
     33 H3         39.3655   21.6805   37.6673 H         1 ACE         0.0467
     34 H4         36.3689   22.8374   38.2532 H         1 LEU         0.1882
     35 H5         35.1233   20.2409   38.0222 H         1 LEU         0.0800
     36 H6         33.0770   21.3849   38.7894 H         1 LEU         0.0315
     37 H7         33.9114   22.9667   38.6210 H         1 LEU         0.0315
     38 H8         35.5201   22.2507   40.3858 H         1 LEU         0.0298
     39 H9         33.9105   22.5403   42.2429 H         1 LEU         0.0232
     40 H10        32.5584   22.1962   41.1115 H         1 LEU         0.0232
     41 H11        33.5766   23.6572   40.8764 H         1 LEU         0.0232
     42 H12        35.2837   19.7993   40.1483 H         1 LEU         0.0232
     43 H13        33.5982   19.9060   40.7601 H         1 LEU         0.0232
     44 H14        34.9721   20.3415   41.8322 H         1 LEU         0.0232
     45 H15        33.8396   19.4479   36.5455 H         1 LEU         0.1883
     46 H16        33.4046   21.0463   34.0727 H         1 LEU         0.0800
     47 H17        33.2867   18.9647   32.8932 H         1 LEU         0.0315
     48 H18        33.2192   18.0303   34.4259 H         1 LEU         0.0315
     49 H19        35.5732   18.6934   34.8818 H         1 LEU         0.0298
     50 H20        36.5672   17.1867   33.2156 H         1 LEU         0.0232
     51 H21        35.0591   17.2810   32.2443 H         1 LEU         0.0232
     52 H22        35.0269   16.5485   33.8841 H         1 LEU         0.0232
     53 H23        35.6382   20.7593   33.5285 H         1 LEU         0.0232
     54 H24        35.5214   19.7746   32.0308 H         1 LEU         0.0232
     55 H25        36.9608   19.6239   33.0948 H         1 LEU         0.0232
     56 H26        31.4252   21.1686   33.1379 H         1 AR7         0.1855
     57 H27        29.1697   20.3317   34.8612 H         1 AR7         0.0579
     58 H28        29.2904   18.7615   32.9345 H         1 AR7         0.0580
     59 H29        29.1619   20.1460   31.7972 H         1 AR7         0.0580
     60 H30        27.1221   20.1878   32.2716 H         1 AR7         0.2095
     61 H31        27.9533   22.0995   33.2904 H         1 AR7         0.0289
     62 H32        29.6292   22.7342   33.1674 H         1 AR7         0.0289
     63 H33        29.7702   23.0232   35.5429 H         1 AR7         0.0300
     64 H34        28.2126   22.1647   35.7947 H         1 AR7         0.0300
     65 H35        28.5782   24.7655   34.2469 H         1 AR7         0.0689
     66 H36        27.9869   24.6321   35.9378 H         1 AR7         0.0689
     67 H37        26.5377   23.7360   33.4694 H         1 AR7         0.2642
     68 H38        23.5338   23.9514   35.2695 H         1 AR7         0.2615
     69 H39        24.2942   23.6560   33.6829 H         1 AR7         0.2615
     70 H40        26.6068   24.4705   36.9453 H         1 AR7         0.2615
     71 H41        24.8311   24.4001   37.1014 H         1 AR7         0.2615
@<TRIPOS>BOND
     1    1    2 2  
     2    1    3 1  
     3    1    4 am 
     4    4    5 1  
     5    5    6 1  
     6    5    8 1  
     7    6    7 2  
     8    6   12 am 
     9    8    9 1  
    10    9   10 1  
    11    9   11 1  
    12   12   13 1  
    13   13   14 1  
    14   13   16 1  
    15   14   15 2  
    16   14   20 am 
    17   16   17 1  
    18   17   18 1  
    19   17   19 1  
    20   20   21 1  
    21   21   22 1  
    22   21   24 1  
    23   22   23 1  
    24   24   25 1  
    25   25   26 1  
    26   26   27 1  
    27   27   28 ar 
    28   28   29 ar 
    29   28   30 ar 
    30    3   31 1  
    31    3   32 1  
    32    3   33 1  
    33    4   34 1  
    34    5   35 1  
    35    8   36 1  
    36    8   37 1  
    37    9   38 1  
    38   10   39 1  
    39   10   40 1  
    40   10   41 1  
    41   11   42 1  
    42   11   43 1  
    43   11   44 1  
    44   12   45 1  
    45   13   46 1  
    46   16   47 1  
    47   16   48 1  
    48   17   49 1  
    49   18   50 1  
    50   18   51 1  
    51   18   52 1  
    52   19   53 1  
    53   19   54 1  
    54   19   55 1  
    55   20   56 1  
    56   21   57 1  
    57   22   58 1  
    58   22   59 1  
    59   23   60 1  
    60   24   61 1  
    61   24   62 1  
    62   25   63 1  
    63   25   64 1  
    64   26   65 1  
    65   26   66 1  
    66   27   67 1  
    67   29   68 1  
    68   29   69 1  
    69   30   70 1  
    70   30   71 1  
@<TRIPOS>SUBSTRUCTURE
     1 ACE         1

