### 
### Created by X-TOOL on Mon Sep 10 21:12:52 2018
### 

@<TRIPOS>MOLECULE
1tlo_ligand
   54    53     1     0     0
SMALL
GAST_HUCK


@<TRIPOS>ATOM
      1 C1         11.3560   38.6840   21.2470 C.2       1 E64         0.0396
      2 O1         12.0590   39.1600   20.2640 O.co2     1 E64        -0.5688
      3 O2         11.8570   38.1280   22.1950 O.co2     1 E64        -0.5688
      4 C2          9.8560   38.8710   21.0810 C.3       1 E64         0.0436
      5 C3          9.2660   40.1820   21.7920 C.3       1 E64         0.1549
      6 O3          9.2680   39.9510   23.1160 O.3       1 E64        -0.3697
      7 C4          7.8540   40.4750   21.2040 C.2       1 E64         0.2089
      8 O4          7.5320   40.6680   19.9900 O.2       1 E64        -0.3940
      9 N1          6.8880   40.5200   22.1490 N.am      1 E64        -0.2634
     10 C6          5.4980   40.4710   21.9440 C.3       1 E64         0.1311
     11 C7          4.8270   39.2110   22.3620 C.3       1 E64        -0.0101
     12 C8          5.2350   37.8430   21.9560 C.3       1 E64        -0.0425
     13 C9          4.2220   36.8430   22.6590 C.3       1 E64        -0.0625
     14 C10         5.1860   37.8330   20.3800 C.3       1 E64        -0.0625
     15 C11         4.7060   41.6090   22.6330 C.2       1 E64         0.2017
     16 O5          5.1170   41.8990   23.7500 O.2       1 E64        -0.3945
     17 N2          3.7130   42.1920   22.0040 N.am      1 E64        -0.2851
     18 C12         2.8940   43.2910   22.4670 C.3       1 E64         0.0311
     19 C13         3.1880   44.3060   21.3730 C.3       1 E64        -0.0296
     20 C14         1.9970   45.2000   21.3610 C.3       1 E64        -0.0180
     21 C15         1.9340   45.7620   19.9430 C.3       1 E64         0.0626
     22 N3          1.6180   44.5160   19.2410 N.pl3     1 E64        -0.2723
     23 C16         1.3820   44.1600   17.8120 C.cat     1 E64         0.2882
     24 N4          1.1290   42.8130   17.7850 N.pl3     1 E64        -0.2849
     25 N5          1.3790   44.9150   16.5860 N.pl3     1 E64        -0.2849
     26 H1          9.3509   37.9920   21.5079 H         1 E64         0.0481
     27 H2          9.6347   38.9346   20.0054 H         1 E64         0.0481
     28 H3          9.9161   41.0443   21.5827 H         1 E64         0.0856
     29 H4          8.7252   39.1946   23.3052 H         1 E64         0.2135
     30 H5          7.1959   40.5965   23.0973 H         1 E64         0.1883
     31 H6          5.3544   40.5752   20.8584 H         1 E64         0.0800
     32 H7          3.7830   39.3136   22.0311 H         1 E64         0.0315
     33 H8          4.8650   39.2118   23.4613 H         1 E64         0.0315
     34 H9          6.2583   37.6186   22.2915 H         1 E64         0.0298
     35 H10         4.4815   35.8086   22.3894 H         1 E64         0.0232
     36 H11         3.1976   37.0632   22.3242 H         1 E64         0.0232
     37 H12         4.2851   36.9642   23.7505 H         1 E64         0.0232
     38 H13         5.9182   38.5531   19.9858 H         1 E64         0.0232
     39 H14         4.1774   38.1139   20.0427 H         1 E64         0.0232
     40 H15         5.4283   36.8251   20.0120 H         1 E64         0.0232
     41 H16         3.4964   41.8338   21.0958 H         1 E64         0.1851
     42 H17         3.2126   43.6511   23.4564 H         1 E64         0.0520
     43 H18         1.8280   43.0219   22.5005 H         1 E64         0.0520
     44 H19         3.3078   43.8056   20.4008 H         1 E64         0.0286
     45 H20         4.0992   44.8761   21.6067 H         1 E64         0.0286
     46 H21         2.1167   46.0123   22.0930 H         1 E64         0.0300
     47 H22         1.0846   44.6304   21.5912 H         1 E64         0.0300
     48 H23         2.8955   46.1886   19.6212 H         1 E64         0.0689
     49 H24         1.1416   46.5164   19.8291 H         1 E64         0.0689
     50 H25         1.5420   43.7070   19.8739 H         1 E64         0.2642
     51 H26         0.9353   42.3432   16.8891 H         1 E64         0.2615
     52 H27         1.1326   42.2707   18.6607 H         1 E64         0.2615
     53 H28         1.5689   45.9272   16.6040 H         1 E64         0.2615
     54 H29         1.1870   44.4429   15.6909 H         1 E64         0.2615
@<TRIPOS>BOND
     1    1    2 ar 
     2    1    3 ar 
     3    1    4 1  
     4    4    5 1  
     5    5    6 1  
     6    5    7 1  
     7    7    8 2  
     8    7    9 am 
     9    9   10 1  
    10   10   11 1  
    11   10   15 1  
    12   11   12 1  
    13   12   13 1  
    14   12   14 1  
    15   15   16 2  
    16   15   17 am 
    17   17   18 1  
    18   18   19 1  
    19   19   20 1  
    20   20   21 1  
    21   21   22 1  
    22   22   23 ar 
    23   23   24 ar 
    24   23   25 ar 
    25    4   26 1  
    26    4   27 1  
    27    5   28 1  
    28    6   29 1  
    29    9   30 1  
    30   10   31 1  
    31   11   32 1  
    32   11   33 1  
    33   12   34 1  
    34   13   35 1  
    35   13   36 1  
    36   13   37 1  
    37   14   38 1  
    38   14   39 1  
    39   14   40 1  
    40   17   41 1  
    41   18   42 1  
    42   18   43 1  
    43   19   44 1  
    44   19   45 1  
    45   20   46 1  
    46   20   47 1  
    47   21   48 1  
    48   21   49 1  
    49   22   50 1  
    50   24   51 1  
    51   24   52 1  
    52   25   53 1  
    53   25   54 1  
@<TRIPOS>SUBSTRUCTURE
     1 E64         1

