### 
### Created by X-TOOL on Mon Sep 10 21:12:45 2018
### 

@<TRIPOS>MOLECULE
1tmb_ligand
  102   105     1     0     0
SMALL
GAST_HUCK


@<TRIPOS>ATOM
      1 C          17.6230  -16.8540   25.1640 C.3       1 0FL         0.0719
      2 O          17.5130  -18.0820   24.8110 O.3       1 0FL        -0.3557
      3 N          16.8580  -16.0560   24.4180 N.4       1 0FL         0.2671
      4 CA         16.8870  -16.1180   22.9800 C.3       1 0FL         0.0894
      5 C          16.7710  -14.6650   22.4860 C.2       1 0FL         0.2313
      6 O          15.7640  -14.0390   22.8570 O.2       1 0FL        -0.3904
      7 CB         15.6720  -16.8720   22.4210 C.3       1 0FL         0.0897
      8 N          17.7080  -14.2500   21.6820 N.am      1 PRO        -0.2471
      9 CA         17.6460  -12.8650   21.1500 C.3       1 PRO         0.1339
     10 C          16.3190  -12.7790   20.3840 C.2       1 PRO         0.2041
     11 O          15.9310  -13.8210   19.8110 O.2       1 PRO        -0.3944
     12 CB         18.9400  -12.6760   20.4260 C.3       1 PRO        -0.0104
     13 CG         19.7290  -13.9540   20.5240 C.3       1 PRO        -0.0281
     14 CD         18.9090  -14.9860   21.2670 C.3       1 PRO         0.0371
     15 N          15.5930  -11.6780   20.3850 N.am      1 0MG        -0.2642
     16 CA         14.2880  -11.5340   19.7130 C.3       1 0MG         0.1290
     17 C          14.3240  -10.9680   18.2940 C.2       1 0MG         0.2369
     18 O          13.3520  -10.3170   17.8800 O.2       1 0MG        -0.3479
     19 CB         13.1840  -10.8260   20.5510 C.3       1 0MG        -0.0098
     20 CG         12.6240  -11.8840   21.5190 C.3       1 0MG        -0.0156
     21 CD         11.9680  -11.2210   22.6650 C.3       1 0MG         0.0627
     22 NE         11.3490  -12.1520   23.5870 N.pl3     1 0MG        -0.2723
     23 CZ         10.4560  -11.9510   24.5160 C.cat     1 0MG         0.2882
     24 NH1        10.0910  -10.6940   24.8430 N.pl3     1 0MG        -0.2849
     25 NH2         9.8280  -12.9810   25.1760 N.pl3     1 0MG        -0.2849
     26 C          15.4760  -11.4280   17.4140 C.2       1 0MG         0.2717
     27 O          16.6630  -11.0420   17.4140 O.2       1 0MG        -0.3594
     28 N          15.1630  -12.4930   16.6670 N.am      1 DPN        -0.2532
     29 CA         16.0170  -13.1780   15.6900 C.3       1 DPN         0.1414
     30 C          15.3040  -14.5570   15.7350 C.2       1 DPN         0.2068
     31 O          14.0800  -14.5730   15.5290 O.2       1 DPN        -0.3941
     32 CB         16.0760  -12.6180   14.3030 C.3       1 DPN         0.0216
     33 CG         14.7570  -12.2270   13.6880 C.ar      1 DPN        -0.0385
     34 CD1        14.0050  -13.1350   12.9430 C.ar      1 DPN        -0.0601
     35 CD2        14.2960  -10.9030   13.8420 C.ar      1 DPN        -0.0601
     36 CE1        12.8150  -12.7210   12.3400 C.ar      1 DPN        -0.0686
     37 CE2        13.1340  -10.4660   13.2200 C.ar      1 DPN        -0.0686
     38 CZ         12.3830  -11.3990   12.4560 C.ar      1 DPN        -0.0687
     39 N          16.0980  -15.5220   16.1380 N.am      1 VLT        -0.2649
     40 CA         15.5030  -16.8440   16.3960 C.3       1 VLT         0.0881
     41 C          15.5590  -16.7740   17.9190 C.2       1 VLT        -0.0328
     42 CB         16.3640  -17.9380   15.6910 C.3       1 VLT         0.0126
     43 CG         16.3090  -17.5380   14.2020 C.ar      1 VLT        -0.0488
     44 CD1        15.0500  -17.6780   13.5790 C.ar      1 VLT        -0.0685
     45 CD2        17.3680  -17.0040   13.4760 C.ar      1 VLT        -0.0685
     46 CE1        14.8420  -17.3130   12.2530 C.ar      1 VLT        -0.0398
     47 CE2        17.1660  -16.6110   12.1510 C.ar      1 VLT        -0.0398
     48 CZ         15.9210  -16.7720   11.5540 C.ar      1 VLT         0.0805
     49 OH         15.7160  -16.3950   10.2370 O.3       1 VLT        -0.3376
     50 C1         15.5590  -17.8290   18.6800 C.2       1 VLT        -0.0006
     51 C2         15.5810  -17.7340   20.1470 C.2       1 VLT         0.1763
     52 O2         15.5520  -18.8550   20.6420 O.2       1 VLT        -0.4012
     53 N2         15.6090  -16.6800   20.9130 N.am      1 0FL        -0.2839
     54 H1         18.6730  -16.5445   25.0555 H         1 0FL         0.1146
     55 H2         17.3190  -16.7570   26.2167 H         1 0FL         0.1146
     56 H3         17.7790  -18.1746   23.9037 H         1 0FL         0.2151
     57 H4         17.1045  -15.1109   24.6672 H         1 0FL         0.2061
     58 H5         15.9051  -16.2380   24.6916 H         1 0FL         0.2061
     59 H6         17.8200  -16.5871   22.6345 H         1 0FL         0.1120
     60 H7         14.7529  -16.4787   22.8798 H         1 0FL         0.0601
     61 H8         15.7672  -17.9435   22.6510 H         1 0FL         0.0601
     62 H9         17.6078  -12.1321   21.9694 H         1 PRO         0.0802
     63 H10        19.5067  -11.8532   20.8862 H         1 PRO         0.0313
     64 H11        18.7439  -12.4404   19.3696 H         1 PRO         0.0313
     65 H12        20.6667  -13.7673   21.0680 H         1 PRO         0.0287
     66 H13        19.9585  -14.3237   19.5137 H         1 PRO         0.0287
     67 H14        18.6451  -15.8254   20.6069 H         1 PRO         0.0524
     68 H15        19.4572  -15.3657   22.1418 H         1 PRO         0.0524
     69 H16        15.9528  -10.8847   20.8761 H         1 0MG         0.1884
     70 H17        13.9356  -12.5693   19.5948 H         1 0MG         0.0796
     71 H18        12.3860  -10.4542   19.8914 H         1 0MG         0.0314
     72 H19        13.6151   -9.9856   21.1147 H         1 0MG         0.0314
     73 H20        13.4471  -12.5151   21.8853 H         1 0MG         0.0301
     74 H21        11.8896  -12.5095   20.9904 H         1 0MG         0.0301
     75 H22        11.1921  -10.5434   22.2793 H         1 0MG         0.0689
     76 H23        12.7245  -10.6389   23.2117 H         1 0MG         0.0689
     77 H24        11.6646  -13.1280   23.4938 H         1 0MG         0.2642
     78 H25         9.3856  -10.5370   25.5769 H         1 0MG         0.2615
     79 H26        10.5178   -9.8913   24.3587 H         1 0MG         0.2615
     80 H27        10.0742  -13.9574   24.9594 H         1 0MG         0.2615
     81 H28         9.1114  -12.7761   25.8870 H         1 0MG         0.2615
     82 H29        14.2425  -12.8643   16.7883 H         1 DPN         0.1898
     83 H30        17.0490  -13.2445   16.0649 H         1 DPN         0.0825
     84 H31        16.5374  -13.3767   13.6538 H         1 DPN         0.0474
     85 H32        16.7130  -11.7216   14.3295 H         1 DPN         0.0474
     86 H33        14.3430  -14.1590   12.8322 H         1 DPN         0.0557
     87 H34        14.8603  -10.2126   14.4584 H         1 DPN         0.0557
     88 H35        12.2219  -13.4327   11.7771 H         1 DPN         0.0599
     89 H36        12.8075   -9.4367   13.3152 H         1 DPN         0.0599
     90 H37        11.4715  -11.0831   11.9616 H         1 DPN         0.0559
     91 H38        17.0771  -15.3639   16.2658 H         1 VLT         0.1893
     92 H39        14.4652  -16.9251   16.0405 H         1 VLT         0.0804
     93 H40        15.6010  -15.7938   18.3917 H         1 VLT         0.0870
     94 H41        15.9321  -18.9378   15.8454 H         1 VLT         0.0459
     95 H42        17.3989  -17.9240   16.0635 H         1 VLT         0.0459
     96 H43        14.2218  -18.0814   14.1502 H         1 VLT         0.0530
     97 H44        18.3437  -16.8935   13.9353 H         1 VLT         0.0530
     98 H45        13.8757  -17.4443   11.7797 H         1 VLT         0.0525
     99 H46        17.9837  -16.1786   11.5858 H         1 VLT         0.0525
    100 H47        14.8152  -16.5741    9.9941 H         1 VLT         0.2458
    101 H48        15.5422  -18.8139   18.2157 H         1 VLT         0.0473
    102 H49        15.5894  -15.7620   20.5169 H         1 0FL         0.1835
@<TRIPOS>BOND
     1    1    2 1  
     2    1    3 1  
     3    3    4 1  
     4    4    5 1  
     5    4    7 1  
     6    5    6 2  
     7    5    8 am 
     8    7   53 1  
     9    8    9 1  
    10    8   14 1  
    11    9   10 1  
    12    9   12 1  
    13   10   11 2  
    14   10   15 am 
    15   12   13 1  
    16   13   14 1  
    17   15   16 1  
    18   16   17 1  
    19   16   19 1  
    20   17   18 2  
    21   17   26 1  
    22   19   20 1  
    23   20   21 1  
    24   21   22 1  
    25   22   23 ar 
    26   23   24 ar 
    27   23   25 ar 
    28   26   27 2  
    29   26   28 am 
    30   28   29 1  
    31   29   30 1  
    32   29   32 1  
    33   30   31 2  
    34   30   39 am 
    35   32   33 1  
    36   33   34 ar 
    37   33   35 ar 
    38   34   36 ar 
    39   35   37 ar 
    40   36   38 ar 
    41   37   38 ar 
    42   39   40 1  
    43   40   41 1  
    44   40   42 1  
    45   41   50 2  
    46   42   43 1  
    47   43   44 ar 
    48   43   45 ar 
    49   44   46 ar 
    50   45   47 ar 
    51   46   48 ar 
    52   47   48 ar 
    53   48   49 1  
    54   50   51 1  
    55   51   52 2  
    56   51   53 am 
    57    1   54 1  
    58    1   55 1  
    59    2   56 1  
    60    3   57 1  
    61    3   58 1  
    62    4   59 1  
    63    7   60 1  
    64    7   61 1  
    65    9   62 1  
    66   12   63 1  
    67   12   64 1  
    68   13   65 1  
    69   13   66 1  
    70   14   67 1  
    71   14   68 1  
    72   15   69 1  
    73   16   70 1  
    74   19   71 1  
    75   19   72 1  
    76   20   73 1  
    77   20   74 1  
    78   21   75 1  
    79   21   76 1  
    80   22   77 1  
    81   24   78 1  
    82   24   79 1  
    83   25   80 1  
    84   25   81 1  
    85   28   82 1  
    86   29   83 1  
    87   32   84 1  
    88   32   85 1  
    89   34   86 1  
    90   35   87 1  
    91   36   88 1  
    92   37   89 1  
    93   38   90 1  
    94   39   91 1  
    95   40   92 1  
    96   41   93 1  
    97   42   94 1  
    98   42   95 1  
    99   44   96 1  
   100   45   97 1  
   101   46   98 1  
   102   47   99 1  
   103   49  100 1  
   104   50  101 1  
   105   53  102 1  
@<TRIPOS>SUBSTRUCTURE
     1 0FL         1

