### 
### Created by X-TOOL on Mon Sep 10 21:12:44 2018
### 

@<TRIPOS>MOLECULE
1tmn_ligand
   67    69     1     0     0
SMALL
GAST_HUCK


@<TRIPOS>ATOM
      1 CA         51.6340   18.0880   -5.7220 C.3       1 0ZN         0.0340
      2 CB1        50.3130   18.1120   -6.5120 C.3       1 0ZN         0.0122
      3 CG         49.8520   16.6610   -6.7000 C.3       1 0ZN        -0.0125
      4 CD         48.5260   16.4110   -7.4500 C.ar      1 0ZN        -0.0427
      5 CE1        48.5000   16.3550   -8.8380 C.ar      1 0ZN        -0.0603
      6 CE2        47.3940   16.1190   -6.7300 C.ar      1 0ZN        -0.0603
      7 CZ1        47.3130   16.0460   -9.5300 C.ar      1 0ZN        -0.0686
      8 CZ2        46.1950   15.8210   -7.4020 C.ar      1 0ZN        -0.0686
      9 CH         46.1420   15.7920   -8.8100 C.ar      1 0ZN        -0.0687
     10 CB2        52.5090   19.0800   -6.4520 C.2       1 0ZN         0.0847
     11 OG1        53.3270   18.7000   -7.3160 O.co2     1 0ZN        -0.5643
     12 OG2        52.3300   20.2880   -6.2750 O.co2     1 0ZN        -0.5643
     13 N          51.5380   18.2350   -4.2180 N.4       1 0ZN         0.2599
     14 CA         52.8370   18.1030   -3.5130 C.3       1 0ZN         0.0686
     15 C          53.6810   16.8680   -3.8590 C.2       1 0ZN         0.2264
     16 O          54.9390   16.9380   -3.9590 O.2       1 0ZN        -0.3908
     17 CB         52.5980   18.0910   -2.0020 C.3       1 0ZN         0.0103
     18 CG         53.9410   18.2290   -1.3100 C.3       1 0ZN        -0.0394
     19 CD1        54.6280   19.5270   -1.7280 C.3       1 0ZN        -0.0623
     20 CD2        53.6860   18.1710    0.1900 C.3       1 0ZN        -0.0623
     21 N          52.9520   15.7650   -3.9830 N.am      1 0ZN        -0.2657
     22 CA         53.5300   14.4480   -4.2980 C.3       1 0ZN         0.0987
     23 C          52.6430   13.5310   -5.1330 C.2       1 0ZN         0.0613
     24 O          51.5720   14.0270   -5.6050 O.co2     1 0ZN        -0.5665
     25 CB         54.1010   13.7350   -3.0370 C.3       1 0ZN        -0.0013
     26 CG         52.9430   13.2580   -2.1640 C.2       1 0ZN        -0.0424
     27 CD1        51.8320   13.9080   -1.8230 C.2       1 0ZN         0.0166
     28 CD2        52.7980   11.9770   -1.6420 C.ar      1 0ZN        -0.0214
     29 NE1        50.8920   12.9890   -1.3140 N.pl3     1 0ZN        -0.2891
     30 CE2        51.4420   11.8400   -1.2860 C.ar      1 0ZN         0.0603
     31 CE3        53.7230   10.9460   -1.4800 C.ar      1 0ZN        -0.0747
     32 CZ2        50.9040   10.6380   -0.8550 C.ar      1 0ZN        -0.0443
     33 CZ3        53.2130    9.7410   -0.9640 C.ar      1 0ZN        -0.0792
     34 CH2        51.8310    9.5840   -0.6900 C.ar      1 0ZN        -0.0768
     35 OXT        53.1420   12.4690   -5.6520 O.co2     1 0ZN        -0.5665
     36 H1         52.0803   17.0940   -5.8730 H         1 0ZN         0.1027
     37 H2         50.4721   18.5840   -7.4928 H         1 0ZN         0.0361
     38 H3         49.5526   18.6765   -5.9524 H         1 0ZN         0.0361
     39 H4         49.7491   16.2185   -5.6982 H         1 0ZN         0.0429
     40 H5         50.6443   16.1356   -7.2533 H         1 0ZN         0.0429
     41 H6         49.4076   16.5522   -9.3970 H         1 0ZN         0.0557
     42 H7         47.4243   16.1181   -5.6464 H         1 0ZN         0.0557
     43 H8         47.3074   16.0054  -10.6132 H         1 0ZN         0.0599
     44 H9         45.2992   15.6107   -6.8290 H         1 0ZN         0.0599
     45 H10        45.2122   15.5771   -9.3242 H         1 0ZN         0.0559
     46 H11        51.1572   19.1454   -4.0125 H         1 0ZN         0.2052
     47 H12        50.9148   17.5236   -3.8695 H         1 0ZN         0.2052
     48 H13        53.4338   18.9906   -3.7699 H         1 0ZN         0.1099
     49 H14        52.1227   17.1438   -1.7074 H         1 0ZN         0.0348
     50 H15        51.9461   18.9313   -1.7212 H         1 0ZN         0.0348
     51 H16        54.5872   17.3863   -1.5967 H         1 0ZN         0.0299
     52 H17        55.5986   19.6092   -1.2169 H         1 0ZN         0.0232
     53 H18        53.9945   20.3827   -1.4516 H         1 0ZN         0.0232
     54 H19        54.7860   19.5242   -2.8166 H         1 0ZN         0.0232
     55 H20        53.1915   17.2211    0.4414 H         1 0ZN         0.0232
     56 H21        53.0390   19.0104    0.4847 H         1 0ZN         0.0232
     57 H22        54.6432   18.2395    0.7276 H         1 0ZN         0.0232
     58 H23        51.9623   15.8321   -3.8563 H         1 0ZN         0.1878
     59 H24        54.3998   14.6627   -4.9362 H         1 0ZN         0.0741
     60 H25        54.7258   14.4387   -2.4674 H         1 0ZN         0.0390
     61 H26        54.7090   12.8719   -3.3458 H         1 0ZN         0.0390
     62 H27        51.6743   14.9810   -1.9218 H         1 0ZN         0.0795
     63 H28        49.9303   13.2078   -1.0171 H         1 0ZN         0.2216
     64 H29        54.7696   11.0658   -1.7357 H         1 0ZN         0.0540
     65 H30        49.8452   10.5146   -0.6580 H         1 0ZN         0.0541
     66 H31        53.8899    8.9163   -0.7721 H         1 0ZN         0.0510
     67 H32        51.4727    8.6220   -0.3418 H         1 0ZN         0.0530
@<TRIPOS>BOND
     1   13   14 1  
     2   14   17 1  
     3   14   15 1  
     4   15   16 2  
     5   17   18 1  
     6   18   19 1  
     7   18   20 1  
     8   21   22 1  
     9   22   25 1  
    10   22   23 1  
    11   23   24 ar 
    12   23   35 ar 
    13   25   26 1  
    14   26   27 2  
    15   26   28 1  
    16   28   31 ar 
    17   28   30 ar 
    18   30   32 ar 
    19   30   29 1  
    20   27   29 1  
    21   32   34 ar 
    22   33   34 ar 
    23   31   33 ar 
    24   15   21 am 
    25    1    2 1  
    26    1   10 1  
    27    1   13 1  
    28    2    3 1  
    29    3    4 1  
    30    4    5 ar 
    31    4    6 ar 
    32    5    7 ar 
    33    6    8 ar 
    34    7    9 ar 
    35    8    9 ar 
    36   10   11 ar 
    37   10   12 ar 
    38    1   36 1  
    39    2   37 1  
    40    2   38 1  
    41    3   39 1  
    42    3   40 1  
    43    5   41 1  
    44    6   42 1  
    45    7   43 1  
    46    8   44 1  
    47    9   45 1  
    48   13   46 1  
    49   13   47 1  
    50   14   48 1  
    51   17   49 1  
    52   17   50 1  
    53   18   51 1  
    54   19   52 1  
    55   19   53 1  
    56   19   54 1  
    57   20   55 1  
    58   20   56 1  
    59   20   57 1  
    60   21   58 1  
    61   22   59 1  
    62   25   60 1  
    63   25   61 1  
    64   27   62 1  
    65   29   63 1  
    66   31   64 1  
    67   32   65 1  
    68   33   66 1  
    69   34   67 1  
@<TRIPOS>SUBSTRUCTURE
     1 0ZN         1

