### 
### Created by X-TOOL on Mon Sep 10 21:12:45 2018
### 

@<TRIPOS>MOLECULE
1tng_ligand
   24    24     1     0     0
SMALL
GAST_HUCK


@<TRIPOS>ATOM
      1 C1         29.4710   15.0640   16.9590 C.3       1 AMC        -0.0009
      2 C2         29.6470   13.5710   16.9460 C.3       1 AMC        -0.0454
      3 C3         29.8870   13.0470   18.3560 C.3       1 AMC        -0.0526
      4 C4         28.6840   13.3890   19.2590 C.3       1 AMC        -0.0530
      5 C5         28.3610   14.8940   19.2410 C.3       1 AMC        -0.0526
      6 C6         28.2560   15.3640   17.7860 C.3       1 AMC        -0.0454
      7 CM         29.2860   15.5890   15.5510 C.3       1 AMC        -0.0325
      8 N          30.5350   15.6930   14.8290 N.4       1 AMC         0.2187
      9 H1         30.3554   15.5388   17.4089 H         1 AMC         0.0352
     10 H2         30.5094   13.3142   16.3133 H         1 AMC         0.0270
     11 H3         28.7395   13.1036   16.5363 H         1 AMC         0.0270
     12 H4         30.7949   13.5120   18.7676 H         1 AMC         0.0265
     13 H5         30.0175   11.9553   18.3214 H         1 AMC         0.0265
     14 H6         28.9172   13.0879   20.2910 H         1 AMC         0.0265
     15 H7         27.8039   12.8324   18.9046 H         1 AMC         0.0265
     16 H8         29.1619   15.4493   19.7511 H         1 AMC         0.0265
     17 H9         27.4056   15.0724   19.7561 H         1 AMC         0.0265
     18 H10        27.3910   14.8663   17.3233 H         1 AMC         0.0270
     19 H11        28.0967   16.4524   17.7847 H         1 AMC         0.0270
     20 H12        28.8255   16.5865   15.6043 H         1 AMC         0.0816
     21 H13        28.6189   14.9059   15.0048 H         1 AMC         0.0816
     22 H14        30.3585   16.0456   13.9013 H         1 AMC         0.1994
     23 H15        30.9638   14.7829   14.7665 H         1 AMC         0.1994
     24 H16        31.1531   16.3230   15.3159 H         1 AMC         0.1994
@<TRIPOS>BOND
     1    2    1 1  
     2    1    6 1  
     3    1    7 1  
     4    2    3 1  
     5    3    4 1  
     6    4    5 1  
     7    5    6 1  
     8    7    8 1  
     9    1    9 1  
    10    2   10 1  
    11    2   11 1  
    12    3   12 1  
    13    3   13 1  
    14    4   14 1  
    15    4   15 1  
    16    5   16 1  
    17    5   17 1  
    18    6   18 1  
    19    6   19 1  
    20    7   20 1  
    21    7   21 1  
    22    8   22 1  
    23    8   23 1  
    24    8   24 1  
@<TRIPOS>SUBSTRUCTURE
     1 AMC         1

