### 
### Created by X-TOOL on Mon Sep 10 21:12:45 2018
### 

@<TRIPOS>MOLECULE
1tnh_ligand
   18    18     1     0     0
SMALL
GAST_HUCK


@<TRIPOS>ATOM
      1 C1         29.1540   14.9450   16.6050 C.ar      1 FBA        -0.0026
      2 C2         29.5030   13.6110   16.6670 C.ar      1 FBA        -0.0570
      3 C3         29.4740   12.9380   17.8740 C.ar      1 FBA        -0.0347
      4 C4         29.0770   13.6200   19.0180 C.ar      1 FBA         0.1248
      5 C5         28.7230   14.9550   18.9610 C.ar      1 FBA        -0.0347
      6 C6         28.7710   15.6060   17.7440 C.ar      1 FBA        -0.0570
      7 C          29.1690   15.7050   15.2980 C.3       1 FBA        -0.0034
      8 N          30.4080   15.5270   14.6230 N.4       1 FBA         0.2303
      9 F          29.0060   12.9520   20.2340 F         1 FBA        -0.1893
     10 H1         29.8012   13.0888   15.7651 H         1 FBA         0.0549
     11 H2         29.7569   11.8929   17.9275 H         1 FBA         0.0587
     12 H3         28.4130   15.4819   19.8562 H         1 FBA         0.0587
     13 H4         28.5021   16.6546   17.6882 H         1 FBA         0.0549
     14 H5         29.0203   16.7756   15.5019 H         1 FBA         0.0971
     15 H6         28.3538   15.3370   14.6577 H         1 FBA         0.0971
     16 H7         30.3953   16.0415   13.7563 H         1 FBA         0.2007
     17 H8         30.5480   14.5476   14.4303 H         1 FBA         0.2007
     18 H9         31.1588   15.8659   15.2039 H         1 FBA         0.2007
@<TRIPOS>BOND
     1    2    1 ar 
     2    1    6 ar 
     3    1    7 1  
     4    2    3 ar 
     5    3    4 ar 
     6    4    5 ar 
     7    4    9 1  
     8    5    6 ar 
     9    7    8 1  
    10    2   10 1  
    11    3   11 1  
    12    5   12 1  
    13    6   13 1  
    14    7   14 1  
    15    7   15 1  
    16    8   16 1  
    17    8   17 1  
    18    8   18 1  
@<TRIPOS>SUBSTRUCTURE
     1 FBA         1

