### 
### Created by X-TOOL on Mon Sep 10 21:12:45 2018
### 

@<TRIPOS>MOLECULE
1tni_ligand
   27    27     1     0     0
SMALL
GAST_HUCK


@<TRIPOS>ATOM
      1 C1         29.0920   15.5130   14.1370 C.3       1 PBN        -0.0352
      2 C2         29.8140   15.8390   15.4380 C.3       1 PBN        -0.0109
      3 C3         28.8910   15.4650   16.5610 C.3       1 PBN        -0.0385
      4 C4         29.5580   14.6080   17.6300 C.3       1 PBN        -0.0190
      5 C1'        30.1700   13.2680   17.1930 C.ar      1 PBN        -0.0430
      6 C2'        29.5220   12.4630   16.2720 C.ar      1 PBN        -0.0603
      7 C3'        29.8790   11.1320   16.1840 C.ar      1 PBN        -0.0686
      8 C4'        30.8630   10.5610   16.9830 C.ar      1 PBN        -0.0687
      9 C5'        31.5100   11.3480   17.9030 C.ar      1 PBN        -0.0686
     10 C6'        31.1550   12.6880   17.9960 C.ar      1 PBN        -0.0603
     11 N          29.8680   14.9520   13.0270 N.4       1 PBN         0.2185
     12 H1         28.6370   16.4470   13.7755 H         1 PBN         0.0813
     13 H2         28.3001   14.7886   14.3780 H         1 PBN         0.0813
     14 H3         30.0456   16.9134   15.4820 H         1 PBN         0.0318
     15 H4         30.7465   15.2597   15.5074 H         1 PBN         0.0318
     16 H5         28.0423   14.9037   16.1431 H         1 PBN         0.0289
     17 H6         28.5234   16.3881   17.0329 H         1 PBN         0.0289
     18 H7         28.7992   14.3883   18.3955 H         1 PBN         0.0426
     19 H8         30.3653   15.2079   18.0754 H         1 PBN         0.0426
     20 H9         28.7482   12.8702   15.6313 H         1 PBN         0.0557
     21 H10        29.3700   10.5053   15.4607 H         1 PBN         0.0599
     22 H11        31.1152    9.5117   16.8812 H         1 PBN         0.0559
     23 H12        32.2807   10.9332   18.5426 H         1 PBN         0.0599
     24 H13        31.6643   13.3102   18.7230 H         1 PBN         0.0557
     25 H14        29.2595   14.7897   12.2399 H         1 PBN         0.1994
     26 H15        30.2846   14.0805   13.3149 H         1 PBN         0.1994
     27 H16        30.5934   15.6001   12.7628 H         1 PBN         0.1994
@<TRIPOS>BOND
     1    2    1 1  
     2    1   11 1  
     3    2    3 1  
     4    3    4 1  
     5    4    5 1  
     6    5    6 ar 
     7    5   10 ar 
     8    6    7 ar 
     9    7    8 ar 
    10    8    9 ar 
    11    9   10 ar 
    12    1   12 1  
    13    1   13 1  
    14    2   14 1  
    15    2   15 1  
    16    3   16 1  
    17    3   17 1  
    18    4   18 1  
    19    4   19 1  
    20    6   20 1  
    21    7   21 1  
    22    8   22 1  
    23    9   23 1  
    24   10   24 1  
    25   11   25 1  
    26   11   26 1  
    27   11   27 1  
@<TRIPOS>SUBSTRUCTURE
     1 PBN         1

