### 
### Created by X-TOOL on Mon Sep 10 21:12:45 2018
### 

@<TRIPOS>MOLECULE
1tnj_ligand
   21    21     1     0     0
SMALL
GAST_HUCK


@<TRIPOS>ATOM
      1 C1'        29.4980   14.9640   16.4240 C.ar      1 PEA        -0.0380
      2 C6'        28.8830   15.4530   17.5640 C.ar      1 PEA        -0.0602
      3 C5'        28.6850   14.6200   18.6580 C.ar      1 PEA        -0.0686
      4 C4'        29.1020   13.2960   18.6070 C.ar      1 PEA        -0.0687
      5 C3'        29.7170   12.8040   17.4580 C.ar      1 PEA        -0.0686
      6 C2'        29.9120   13.6370   16.3670 C.ar      1 PEA        -0.0602
      7 C2         29.7390   15.8900   15.2570 C.3       1 PEA         0.0211
      8 C1         29.0950   15.4330   13.9710 C.3       1 PEA        -0.0258
      9 N          29.9900   14.9120   12.9550 N.4       1 PEA         0.2200
     10 H1         28.5560   16.4858   17.6029 H         1 PEA         0.0557
     11 H2         28.2052   15.0032   19.5513 H         1 PEA         0.0599
     12 H3         28.9489   12.6460   19.4609 H         1 PEA         0.0559
     13 H4         30.0428   11.7709   17.4169 H         1 PEA         0.0599
     14 H5         30.3866   13.2547   15.4705 H         1 PEA         0.0557
     15 H6         30.8241   15.9657   15.0932 H         1 PEA         0.0478
     16 H7         29.3367   16.8814   15.5126 H         1 PEA         0.0478
     17 H8         28.5615   16.2926   13.5391 H         1 PEA         0.0837
     18 H9         28.3734   14.6411   14.2202 H         1 PEA         0.0837
     19 H10        29.4560   14.6388   12.1449 H         1 PEA         0.1996
     20 H11        30.4817   14.1109   13.3191 H         1 PEA         0.1996
     21 H12        30.6541   15.6243   12.6950 H         1 PEA         0.1996
@<TRIPOS>BOND
     1    1    2 ar 
     2    1    6 ar 
     3    1    7 1  
     4    2    3 ar 
     5    3    4 ar 
     6    4    5 ar 
     7    6    5 ar 
     8    7    8 1  
     9    8    9 1  
    10    2   10 1  
    11    3   11 1  
    12    4   12 1  
    13    5   13 1  
    14    6   14 1  
    15    7   15 1  
    16    7   16 1  
    17    8   17 1  
    18    8   18 1  
    19    9   19 1  
    20    9   20 1  
    21    9   21 1  
@<TRIPOS>SUBSTRUCTURE
     1 PEA         1

