### 
### Created by X-TOOL on Mon Sep 10 21:12:45 2018
### 

@<TRIPOS>MOLECULE
1tnk_ligand
   24    24     1     0     0
SMALL
GAST_HUCK


@<TRIPOS>ATOM
      1 C1         29.1850   15.9530   14.3410 C.3       1 PRA        -0.0336
      2 C2         29.7360   15.8910   15.7220 C.3       1 PRA        -0.0029
      3 C3         29.3620   14.5200   16.1610 C.3       1 PRA        -0.0143
      4 C1'        29.3740   14.3520   17.6500 C.ar      1 PRA        -0.0428
      5 C2'        29.7500   13.1000   18.1070 C.ar      1 PRA        -0.0603
      6 C3'        29.2170   12.6100   19.2830 C.ar      1 PRA        -0.0686
      7 C4'        28.3150   13.3710   20.0020 C.ar      1 PRA        -0.0687
      8 C5'        27.9480   14.6290   19.5470 C.ar      1 PRA        -0.0686
      9 C6'        28.4780   15.1240   18.3700 C.ar      1 PRA        -0.0603
     10 N          29.7690   15.0690   13.3340 N.4       1 PRA         0.2186
     11 H1         29.3108   16.9857   13.9836 H         1 PRA         0.0815
     12 H2         28.1130   15.7149   14.4045 H         1 PRA         0.0815
     13 H3         29.2758   16.6536   16.3675 H         1 PRA         0.0339
     14 H4         30.8281   16.0228   15.7198 H         1 PRA         0.0339
     15 H5         30.0752   13.8061   15.7231 H         1 PRA         0.0428
     16 H6         28.3493   14.2992   15.7927 H         1 PRA         0.0428
     17 H7         30.4606   12.5064   17.5433 H         1 PRA         0.0557
     18 H8         29.5061   11.6288   19.6419 H         1 PRA         0.0599
     19 H9         27.8936   12.9843   20.9229 H         1 PRA         0.0559
     20 H10        27.2439   15.2254   20.1158 H         1 PRA         0.0599
     21 H11        28.1946   16.1079   18.0139 H         1 PRA         0.0557
     22 H12        29.3054   15.2134   12.4507 H         1 PRA         0.1994
     23 H13        29.6533   14.1098   13.6212 H         1 PRA         0.1994
     24 H14        30.7510   15.2742   13.2356 H         1 PRA         0.1994
@<TRIPOS>BOND
     1    2    1 1  
     2    1   10 1  
     3    2    3 1  
     4    3    4 1  
     5    4    5 ar 
     6    4    9 ar 
     7    5    6 ar 
     8    6    7 ar 
     9    7    8 ar 
    10    8    9 ar 
    11    1   11 1  
    12    1   12 1  
    13    2   13 1  
    14    2   14 1  
    15    3   15 1  
    16    3   16 1  
    17    5   17 1  
    18    6   18 1  
    19    7   19 1  
    20    8   20 1  
    21    9   21 1  
    22   10   22 1  
    23   10   23 1  
    24   10   24 1  
@<TRIPOS>SUBSTRUCTURE
     1 PRA         1

