### 
### Created by X-TOOL on Mon Sep 10 21:12:45 2018
### 

@<TRIPOS>MOLECULE
1tnl_ligand
   22    23     1     0     0
SMALL
GAST_HUCK


@<TRIPOS>ATOM
      1 C1         30.1900   15.4610   14.8430 C.3       1 TPA        -0.0095
      2 C2         28.9490   15.1840   15.6180 C.3       1 TPA         0.0409
      3 C3         29.3470   16.5960   15.4000 C.3       1 TPA         0.0101
      4 C1'        29.1430   14.7060   17.0310 C.ar      1 TPA        -0.0344
      5 C2'        28.6820   15.4810   18.0860 C.ar      1 TPA        -0.0599
      6 C3'        28.7430   14.9720   19.3680 C.ar      1 TPA        -0.0686
      7 C4'        29.2640   13.6990   19.5790 C.ar      1 TPA        -0.0687
      8 C5'        29.7350   12.9350   18.5160 C.ar      1 TPA        -0.0686
      9 C6'        29.6770   13.4390   17.2310 C.ar      1 TPA        -0.0599
     10 N          29.9220   15.1630   13.4350 N.4       1 TPA         0.2225
     11 H1         31.2151   15.2425   15.1767 H         1 TPA         0.0878
     12 H2         28.0588   14.7427   15.1460 H         1 TPA         0.0519
     13 H3         28.7638   17.2347   14.7204 H         1 TPA         0.0348
     14 H4         29.7207   17.1996   16.2402 H         1 TPA         0.0348
     15 H5         28.2799   16.4715   17.9061 H         1 TPA         0.0557
     16 H6         28.3870   15.5608   20.2056 H         1 TPA         0.0599
     17 H7         29.3034   13.2973   20.5851 H         1 TPA         0.0559
     18 H8         30.1459   11.9481   18.6953 H         1 TPA         0.0599
     19 H9         30.0419   12.8560   16.3931 H         1 TPA         0.0557
     20 H10        30.5132   14.4042   13.1338 H         1 TPA         0.1999
     21 H11        30.1131   15.9800   12.8763 H         1 TPA         0.1999
     22 H12        28.9552   14.8996   13.3254 H         1 TPA         0.1999
@<TRIPOS>BOND
     1    2    1 1  
     2    1    3 1  
     3    1   10 1  
     4    2    3 1  
     5    2    4 1  
     6    4    5 ar 
     7    4    9 ar 
     8    5    6 ar 
     9    6    7 ar 
    10    7    8 ar 
    11    8    9 ar 
    12    1   11 1  
    13    2   12 1  
    14    3   13 1  
    15    3   14 1  
    16    5   15 1  
    17    6   16 1  
    18    7   17 1  
    19    8   18 1  
    20    9   19 1  
    21   10   20 1  
    22   10   21 1  
    23   10   22 1  
@<TRIPOS>SUBSTRUCTURE
     1 TPA         1

