### 
### Created by X-TOOL on Fri Sep 26 17:34:25 2014
### 

@<TRIPOS>MOLECULE
1toi_ligand
   20    20     1     0     0
SMALL
GAST_HUCK


@<TRIPOS>ATOM
      1 C1         73.2820   53.7340   34.1950 C.2       1 HCI         0.0367
      2 O1         72.1530   54.1970   34.0410 O.co2     1 HCI        -0.5688
      3 O2         73.4290   52.5530   34.7740 O.co2     1 HCI        -0.5688
      4 C2         74.5300   54.4900   33.7870 C.3       1 HCI         0.0099
      5 C3         74.4080   55.0380   32.3640 C.3       1 HCI        -0.0076
      6 C1'        74.6950   53.9180   31.3790 C.ar      1 HCI        -0.0414
      7 C2'        75.9190   53.8980   30.7100 C.ar      1 HCI        -0.0602
      8 C3'        76.2060   52.8910   29.7890 C.ar      1 HCI        -0.0686
      9 C4'        75.2750   51.8780   29.5680 C.ar      1 HCI        -0.0687
     10 C5'        74.0540   51.8800   30.2440 C.ar      1 HCI        -0.0686
     11 C6'        73.7600   52.8970   31.1500 C.ar      1 HCI        -0.0602
     12 H1         75.3931   53.8098   33.8361 H         1 HCI         0.0453
     13 H2         74.6841   55.3287   34.4819 H         1 HCI         0.0453
     14 H3         75.1330   55.8524   32.2185 H         1 HCI         0.0444
     15 H4         73.3895   55.4204   32.2017 H         1 HCI         0.0444
     16 H5         76.6526   54.6712   30.9076 H         1 HCI         0.0557
     17 H6         77.1460   52.8962   29.2492 H         1 HCI         0.0599
     18 H7         75.5006   51.0831   28.8663 H         1 HCI         0.0559
     19 H8         73.3339   51.0899   30.0641 H         1 HCI         0.0599
     20 H9         72.8122   52.8995   31.6761 H         1 HCI         0.0557
@<TRIPOS>BOND
     1    1    2 ar 
     2    1    3 ar 
     3    1    4 1  
     4    4    5 1  
     5    5    6 1  
     6    6    7 ar 
     7    6   11 ar 
     8    7    8 ar 
     9    8    9 ar 
    10    9   10 ar 
    11   10   11 ar 
    12    4   12 1  
    13    4   13 1  
    14    5   14 1  
    15    5   15 1  
    16    7   16 1  
    17    8   17 1  
    18    9   18 1  
    19   10   19 1  
    20   11   20 1  
@<TRIPOS>SUBSTRUCTURE
     1 HCI         1

