### 
### Created by X-TOOL on Fri Sep 26 17:34:25 2014
### 

@<TRIPOS>MOLECULE
1toj_ligand
   20    20     1     0     0
SMALL
GAST_HUCK


@<TRIPOS>ATOM
      1 C1         31.2410   23.6960    4.7350 C.2       1 HCI         0.0367
      2 O1         30.1150   23.2230    4.8740 O.co2     1 HCI        -0.5688
      3 O2         31.3860   24.8830    4.1580 O.co2     1 HCI        -0.5688
      4 C2         32.4760   22.9440    5.1790 C.3       1 HCI         0.0099
      5 C3         32.3590   22.4020    6.6100 C.3       1 HCI        -0.0076
      6 C1'        32.6090   23.5050    7.6240 C.ar      1 HCI        -0.0414
      7 C2'        33.8300   23.5640    8.3140 C.ar      1 HCI        -0.0602
      8 C3'        34.0550   24.5930    9.2450 C.ar      1 HCI        -0.0686
      9 C4'        33.0780   25.5660    9.4640 C.ar      1 HCI        -0.0687
     10 C5'        31.8580   25.5130    8.7720 C.ar      1 HCI        -0.0686
     11 C6'        31.6280   24.4870    7.8570 C.ar      1 HCI        -0.0602
     12 H1         33.3386   23.6248    5.1304 H         1 HCI         0.0453
     13 H2         32.6375   22.0980    4.4948 H         1 HCI         0.0453
     14 H3         33.1010   21.6030    6.7553 H         1 HCI         0.0444
     15 H4         31.3481   21.9955    6.7606 H         1 HCI         0.0444
     16 H5         34.5960   22.8194    8.1298 H         1 HCI         0.0557
     17 H6         34.9889   24.6311    9.7940 H         1 HCI         0.0599
     18 H7         33.2625   26.3661   10.1717 H         1 HCI         0.0559
     19 H8         31.0985   26.2661    8.9483 H         1 HCI         0.0599
     20 H9         30.6867   24.4451    7.3210 H         1 HCI         0.0557
@<TRIPOS>BOND
     1    1    2 ar 
     2    1    3 ar 
     3    1    4 1  
     4    4    5 1  
     5    5    6 1  
     6    6    7 ar 
     7    6   11 ar 
     8    7    8 ar 
     9    8    9 ar 
    10    9   10 ar 
    11   10   11 ar 
    12    4   12 1  
    13    4   13 1  
    14    5   14 1  
    15    5   15 1  
    16    7   16 1  
    17    8   17 1  
    18    9   18 1  
    19   10   19 1  
    20   11   20 1  
@<TRIPOS>SUBSTRUCTURE
     1 HCI         1

