### 
### Created by X-TOOL on Fri Sep 26 17:34:26 2014
### 

@<TRIPOS>MOLECULE
1tok_ligand
   10     9     1     0     0
SMALL
GAST_HUCK


@<TRIPOS>ATOM
      1 C1         36.8250   19.4470   -3.8260 C.2       1 MAE         0.0606
      2 O1         36.7530   20.5780   -3.2830 O.co2     1 MAE        -0.5598
      3 O2         36.9220   18.4380   -3.0830 O.co2     1 MAE        -0.5598
      4 C2         36.7050   19.3960   -5.3140 C.2       1 MAE        -0.0149
      5 C3         36.4720   18.3330   -6.0920 C.2       1 MAE        -0.0149
      6 C4         36.4700   16.9220   -5.6560 C.2       1 MAE         0.0606
      7 O3         35.5520   16.3540   -4.9950 O.co2     1 MAE        -0.5598
      8 O4         37.4690   16.2720   -6.0060 O.co2     1 MAE        -0.5598
      9 H1         36.8223   20.3466   -5.8322 H         1 MAE         0.0739
     10 H2         36.2647   18.5258   -7.1436 H         1 MAE         0.0739
@<TRIPOS>BOND
     1    1    2 ar 
     2    1    3 ar 
     3    1    4 1  
     4    4    5 2  
     5    5    6 1  
     6    6    7 ar 
     7    6    8 ar 
     8    4    9 1  
     9    5   10 1  
@<TRIPOS>SUBSTRUCTURE
     1 MAE         1

