### 
### Created by X-TOOL on Mon Sep 10 21:12:51 2018
### 

@<TRIPOS>MOLECULE
1tou_ligand
   35    36     1     0     0
SMALL
GAST_HUCK


@<TRIPOS>ATOM
      1 F27        21.4910    5.6460    4.6240 F         1 B1V        -0.2271
      2 C24        20.3120    5.0570    4.6360 C.3       1 B1V         0.3798
      3 F25        19.6730    5.4360    5.6480 F         1 B1V        -0.2271
      4 F26        20.4800    3.7460    4.6790 F         1 B1V        -0.2271
      5 C9         19.5870    5.4220    3.4300 C.2       1 B1V         0.0909
      6 N11        19.9250    4.8530    2.2500 N.2       1 B1V        -0.2873
      7 C7         18.5770    6.3840    3.4600 C.2       1 B1V         0.0735
      8 C5         17.9330    6.7110    2.2700 C.2       1 B1V         0.2741
      9 O13        16.9360    7.6350    2.2460 O.2       1 B1V        -0.3647
     10 N3         18.3000    6.1190    1.1250 N.am      1 B1V        -0.1746
     11 C1         19.2910    5.1970    1.1210 C.2       1 B1V         0.2158
     12 S14        19.7160    4.4530   -0.4020 S.3       1 B1V         0.0005
     13 C15        21.0660    3.3370    0.0700 C.3       1 B1V         0.1088
     14 C16        22.4160    3.9900   -0.1690 C.2       1 B1V         0.1920
     15 O23        22.6210    4.6460   -1.1830 O.2       1 B1V        -0.3957
     16 N17        23.4750    3.8060    0.7610 N.am      1 B1V        -0.2723
     17 C18        23.0240    3.8540    2.1660 C.3       1 B1V         0.0339
     18 C19        24.1510    3.3950    3.0960 C.3       1 B1V        -0.0325
     19 C20        25.4890    4.0960    2.8100 C.3       1 B1V        -0.0494
     20 C21        25.7870    4.3780    1.3320 C.3       1 B1V        -0.0325
     21 C22        24.5500    4.7960    0.5480 C.3       1 B1V         0.0339
     22 H1         18.2984    6.8688    4.3945 H         1 B1V         0.1218
     23 H2         17.8399    6.3594    0.2703 H         1 B1V         0.2581
     24 H3         20.9995    2.4172   -0.5296 H         1 B1V         0.0656
     25 H4         20.9705    3.0870    1.1369 H         1 B1V         0.0656
     26 H5         22.1554    3.1911    2.2922 H         1 B1V         0.0522
     27 H6         22.7386    4.8851    2.4216 H         1 B1V         0.0522
     28 H7         24.2894    2.3110    2.9705 H         1 B1V         0.0285
     29 H8         23.8579    3.6095    4.1343 H         1 B1V         0.0285
     30 H9         26.2954    3.4590    3.2022 H         1 B1V         0.0267
     31 H10        25.4884    5.0574    3.3445 H         1 B1V         0.0267
     32 H11        26.1995    3.4656    0.8767 H         1 B1V         0.0285
     33 H12        26.5306    5.1863    1.2717 H         1 B1V         0.0285
     34 H13        24.2127    5.7840    0.8946 H         1 B1V         0.0522
     35 H14        24.7947    4.8470   -0.5232 H         1 B1V         0.0522
@<TRIPOS>BOND
     1    1    2 1  
     2    2    3 1  
     3    2    4 1  
     4    2    5 1  
     5    5    6 1  
     6    5    7 2  
     7    6   11 2  
     8    7    8 1  
     9    8    9 2  
    10    8   10 am 
    11   10   11 am 
    12   11   12 1  
    13   12   13 1  
    14   13   14 1  
    15   14   15 2  
    16   14   16 am 
    17   16   17 1  
    18   16   21 1  
    19   17   18 1  
    20   18   19 1  
    21   19   20 1  
    22   20   21 1  
    23    7   22 1  
    24   10   23 1  
    25   13   24 1  
    26   13   25 1  
    27   17   26 1  
    28   17   27 1  
    29   18   28 1  
    30   18   29 1  
    31   19   30 1  
    32   19   31 1  
    33   20   32 1  
    34   20   33 1  
    35   21   34 1  
    36   21   35 1  
@<TRIPOS>SUBSTRUCTURE
     1 B1V         1

