### 
### Created by X-TOOL on Mon Sep 10 21:12:51 2018
### 

@<TRIPOS>MOLECULE
1tow_ligand
   33    35     1     0     0
SMALL
GAST_HUCK


@<TRIPOS>ATOM
      1 O19        17.4080    7.2290    2.0020 O.co2     1 CRZ        -0.5690
      2 C1         17.9280    6.4240    2.7610 C.2       1 CRZ         0.0349
      3 O18        17.1920    5.4060    3.1960 O.co2     1 CRZ        -0.5690
      4 C2         19.3710    6.5730    3.1920 C.3       1 CRZ         0.0025
      5 C3         19.8380    5.4040    4.0810 C.3       1 CRZ        -0.0165
      6 C4         20.1330    4.1170    3.2890 C.3       1 CRZ         0.0492
      7 N5         21.0330    4.3350    2.1460 N.pl3     1 CRZ        -0.2595
      8 C6         20.6150    4.5170    0.8490 C.ar      1 CRZ         0.0685
      9 C17        19.3820    4.6100    0.2010 C.ar      1 CRZ        -0.0397
     10 C7         21.8270    4.6580    0.0110 C.ar      1 CRZ        -0.0028
     11 C14        21.7870    4.8620   -1.3620 C.ar      1 CRZ        -0.0676
     12 C15        20.5190    4.9520   -1.9530 C.ar      1 CRZ        -0.0746
     13 C16        19.3480    4.8220   -1.1880 C.ar      1 CRZ        -0.0728
     14 C8         22.9600    4.5250    0.9060 C.ar      1 CRZ        -0.0028
     15 C9         22.3980    4.3210    2.2560 C.ar      1 CRZ         0.0685
     16 C10        23.3060    4.1740    3.3110 C.ar      1 CRZ        -0.0397
     17 C13        24.3290    4.5700    0.6410 C.ar      1 CRZ        -0.0676
     18 C12        25.1830    4.4050    1.7380 C.ar      1 CRZ        -0.0746
     19 C11        24.6770    4.2150    3.0320 C.ar      1 CRZ        -0.0728
     20 H1         19.4768    7.5112    3.7565 H         1 CRZ         0.0431
     21 H2         20.0063    6.6112    2.2948 H         1 CRZ         0.0431
     22 H3         19.0493    5.1881    4.8168 H         1 CRZ         0.0307
     23 H4         20.7554    5.7091    4.6056 H         1 CRZ         0.0307
     24 H5         19.1820    3.7118    2.9131 H         1 CRZ         0.0580
     25 H6         20.5997    3.3878    3.9676 H         1 CRZ         0.0580
     26 H7         18.4598    4.5196    0.7636 H         1 CRZ         0.0540
     27 H8         22.6940    4.9477   -1.9494 H         1 CRZ         0.0578
     28 H9         20.4407    5.1251   -3.0202 H         1 CRZ         0.0518
     29 H10        18.3869    4.8873   -1.6851 H         1 CRZ         0.0571
     30 H11        22.9537    4.0309    4.3261 H         1 CRZ         0.0540
     31 H12        24.7113    4.7246   -0.3615 H         1 CRZ         0.0578
     32 H13        26.2559    4.4245    1.5842 H         1 CRZ         0.0518
     33 H14        25.3772    4.0948    3.8507 H         1 CRZ         0.0571
@<TRIPOS>BOND
     1    1    2 ar 
     2    2    3 ar 
     3    2    4 1  
     4    4    5 1  
     5    5    6 1  
     6    6    7 1  
     7    7    8 1  
     8    7   15 1  
     9    8    9 ar 
    10    8   10 ar 
    11    9   13 ar 
    12   10   11 ar 
    13   10   14 1  
    14   11   12 ar 
    15   12   13 ar 
    16   14   15 ar 
    17   14   17 ar 
    18   15   16 ar 
    19   16   19 ar 
    20   17   18 ar 
    21   18   19 ar 
    22    4   20 1  
    23    4   21 1  
    24    5   22 1  
    25    5   23 1  
    26    6   24 1  
    27    6   25 1  
    28    9   26 1  
    29   11   27 1  
    30   12   28 1  
    31   13   29 1  
    32   16   30 1  
    33   17   31 1  
    34   18   32 1  
    35   19   33 1  
@<TRIPOS>SUBSTRUCTURE
     1 CRZ         1

