### 
### Created by X-TOOL on Mon Sep 10 21:12:52 2018
### 

@<TRIPOS>MOLECULE
1tqf_ligand
   75    77     1     0     0
SMALL
GAST_HUCK


@<TRIPOS>ATOM
      1 C1         29.1450   47.9380   -1.4330 C.ar      1 32P        -0.0685
      2 C2         29.6830   48.6860   -0.3040 C.ar      1 32P        -0.0687
      3 C3         28.9440   48.9120    0.9340 C.ar      1 32P        -0.0685
      4 C4         27.6110   48.3430    1.0500 C.ar      1 32P        -0.0587
      5 C5         27.0730   47.5700   -0.0740 C.ar      1 32P        -0.0193
      6 C6         27.8150   47.3690   -1.3180 C.ar      1 32P        -0.0587
      7 S1         25.7840   45.3610    0.8680 S.o2      1 32P         0.1102
      8 O1         26.8070   44.5430   -0.0520 O.3       1 32P        -0.1701
      9 O2         24.4800   44.7680    0.7460 O.2       1 32P        -0.1411
     10 O3         26.3500   45.5060    2.1580 O.2       1 32P        -0.1411
     11 C7         25.7000   46.9510    0.0570 C.3       1 32P         0.1303
     12 C8         27.9080   43.9220    0.5350 C.ar      1 32P         0.1199
     13 C9         27.9110   42.4880    0.5710 C.ar      1 32P         0.0016
     14 C10        29.0410   41.7640    1.0760 C.ar      1 32P         0.0911
     15 C11        30.1700   42.5090    1.5700 C.ar      1 32P        -0.0243
     16 C12        30.1950   43.9430    1.5680 C.ar      1 32P         0.0330
     17 C13        29.0560   44.6430    1.0390 C.ar      1 32P        -0.0221
     18 O4         28.9570   40.3800    0.9750 O.3       1 32P        -0.2994
     19 C14        31.3560   44.7110    2.0600 C.2       1 32P         0.2020
     20 C15        29.8550   39.4890    1.6800 C.3       1 32P         0.1587
     21 C16        31.2210   39.4660    1.0150 C.2       1 32P         0.2069
     22 N1         32.1790   38.9480    1.8100 N.am      1 32P        -0.2847
     23 O5         31.3680   39.8700   -0.1400 O.2       1 32P        -0.3941
     24 N2         32.0960   44.1180    3.0160 N.am      1 32P        -0.2729
     25 O6         31.6650   45.8270    1.6380 O.2       1 32P        -0.3845
     26 C17        33.1220   44.8870    3.7140 C.3       1 32P         0.0705
     27 C18        34.3680   44.0050    3.8410 C.3       1 32P        -0.0325
     28 C19        34.6720   41.2220    0.1430 C.3       1 32P        -0.0126
     29 C20        34.3900   41.0360    1.6310 C.3       1 32P        -0.0464
     30 C21        34.5560   39.5900    2.0620 C.3       1 32P        -0.0326
     31 C22        33.5440   38.6830    1.3730 C.3       1 32P         0.0310
     32 N3         34.7350   42.7940   -1.7160 N.4       1 32P         0.2185
     33 C23        34.4590   42.6720   -0.2750 C.3       1 32P        -0.0354
     34 C24        32.2830   44.4750    6.1330 C.ar      1 32P        -0.0598
     35 C25        32.6680   45.3850    5.0380 C.ar      1 32P        -0.0221
     36 C26        32.6390   46.8350    5.1450 C.ar      1 32P        -0.0598
     37 C27        32.2320   47.4130    6.3880 C.ar      1 32P        -0.0348
     38 C28        31.9080   46.5040    7.4680 C.ar      1 32P         0.1248
     39 C29        31.9150   45.0580    7.3940 C.ar      1 32P        -0.0348
     40 F1         31.5670   47.0590    8.6200 F         1 32P        -0.1893
     41 H1         29.7258   47.8094   -2.3392 H         1 32P         0.0599
     42 H2         30.6832   49.0955   -0.3880 H         1 32P         0.0559
     43 H3         29.3766   49.4878    1.7442 H         1 32P         0.0599
     44 H4         27.0256   48.4876    1.9508 H         1 32P         0.0557
     45 H5         27.3807   46.8069   -2.1369 H         1 32P         0.0557
     46 H6         25.2681   46.8199   -0.9461 H         1 32P         0.0693
     47 H7         25.0587   47.6217    0.6476 H         1 32P         0.0693
     48 H8         27.0457   41.9433    0.2109 H         1 32P         0.0499
     49 H9         31.0275   41.9693    1.9553 H         1 32P         0.0502
     50 H10        29.0577   45.7268    1.0176 H         1 32P         0.0502
     51 H11        29.4336   38.4729    1.6743 H         1 32P         0.0859
     52 H12        29.9649   39.8346    2.7185 H         1 32P         0.0859
     53 H13        31.9385   38.7327    2.7565 H         1 32P         0.1851
     54 H14        31.9437   43.1569    3.2464 H         1 32P         0.1874
     55 H15        33.3750   45.7630    3.0987 H         1 32P         0.0708
     56 H16        35.1592   44.5614    4.3648 H         1 32P         0.0273
     57 H17        34.7209   43.7223    2.8383 H         1 32P         0.0273
     58 H18        34.1187   43.0980    4.4112 H         1 32P         0.0273
     59 H19        33.9937   40.5774   -0.4352 H         1 32P         0.0317
     60 H20        35.7140   40.9371   -0.0642 H         1 32P         0.0317
     61 H21        33.3575   41.3530    1.8397 H         1 32P         0.0268
     62 H22        35.0889   41.6610    2.2063 H         1 32P         0.0268
     63 H23        34.4134   39.5227    3.1506 H         1 32P         0.0285
     64 H24        35.5711   39.2542    1.8037 H         1 32P         0.0285
     65 H25        33.6057   38.8446    0.2867 H         1 32P         0.0520
     66 H26        33.7925   37.6364    1.6028 H         1 32P         0.0520
     67 H27        34.5973   43.7499   -2.0047 H         1 32P         0.1994
     68 H28        34.1088   42.1943   -2.2300 H         1 32P         0.1994
     69 H29        35.6879   42.5214   -1.8999 H         1 32P         0.1994
     70 H30        35.1423   43.3239    0.2891 H         1 32P         0.0813
     71 H31        33.4191   42.9669   -0.0712 H         1 32P         0.0813
     72 H32        32.2778   43.4003    5.9911 H         1 32P         0.0548
     73 H33        32.9184   47.4608    4.3051 H         1 32P         0.0548
     74 H34        32.1686   48.4875    6.5167 H         1 32P         0.0587
     75 H35        31.6551   44.4444    8.2490 H         1 32P         0.0587
@<TRIPOS>BOND
     1    1    2 ar 
     2    6    1 ar 
     3    3    2 ar 
     4    4    3 ar 
     5    5    4 ar 
     6    5    6 ar 
     7   11    5 1  
     8    8    7 1  
     9    7    9 2  
    10    7   10 2  
    11    7   11 1  
    12   12    8 1  
    13   13   12 ar 
    14   12   17 ar 
    15   14   13 ar 
    16   14   15 ar 
    17   18   14 1  
    18   15   16 ar 
    19   16   17 ar 
    20   16   19 1  
    21   20   18 1  
    22   19   24 am 
    23   19   25 2  
    24   21   20 1  
    25   22   21 am 
    26   21   23 2  
    27   31   22 1  
    28   24   26 1  
    29   26   27 1  
    30   26   35 1  
    31   29   28 1  
    32   28   33 1  
    33   30   29 1  
    34   30   31 1  
    35   33   32 1  
    36   35   34 ar 
    37   34   39 ar 
    38   35   36 ar 
    39   36   37 ar 
    40   37   38 ar 
    41   38   39 ar 
    42   38   40 1  
    43    1   41 1  
    44    2   42 1  
    45    3   43 1  
    46    4   44 1  
    47    6   45 1  
    48   11   46 1  
    49   11   47 1  
    50   13   48 1  
    51   15   49 1  
    52   17   50 1  
    53   20   51 1  
    54   20   52 1  
    55   22   53 1  
    56   24   54 1  
    57   26   55 1  
    58   27   56 1  
    59   27   57 1  
    60   27   58 1  
    61   28   59 1  
    62   28   60 1  
    63   29   61 1  
    64   29   62 1  
    65   30   63 1  
    66   30   64 1  
    67   31   65 1  
    68   31   66 1  
    69   32   67 1  
    70   32   68 1  
    71   32   69 1  
    72   33   70 1  
    73   33   71 1  
    74   34   72 1  
    75   36   73 1  
    76   37   74 1  
    77   39   75 1  
@<TRIPOS>SUBSTRUCTURE
     1 32P         1

