### 
### Created by X-TOOL on Mon Sep 10 21:12:52 2018
### 

@<TRIPOS>MOLECULE
1tr7_ligand
   36    36     1     0     0
SMALL
GAST_HUCK


@<TRIPOS>ATOM
      1 C3'        58.0940  -14.4700   24.7120 C.3       1 DEG        -0.0538
      2 C4'        59.2250  -15.3800   25.1340 C.3       1 DEG        -0.0652
      3 C1'        55.6010  -14.3180   24.8530 C.3       1 DEG         0.0508
      4 C2'        56.7940  -15.2440   24.8400 C.3       1 DEG        -0.0296
      5 C2         54.0600  -12.7260   22.0770 C.3       1 DEG         0.1341
      6 O2         52.7820  -12.1400   21.9760 O.3       1 DEG        -0.3841
      7 C3         55.1590  -11.8420   21.4420 C.3       1 DEG         0.1141
      8 O3         54.8130  -11.5920   20.0880 O.3       1 DEG        -0.3864
      9 C4         55.3300  -10.5400   22.2530 C.3       1 DEG         0.1119
     10 O4         56.3750   -9.7720   21.6700 O.3       1 DEG        -0.3865
     11 C5         55.5940  -10.7870   23.7750 C.3       1 DEG         0.1130
     12 O5         54.6440  -11.6660   24.4100 O.3       1 DEG        -0.3405
     13 C6         55.5820   -9.5120   24.5910 C.3       1 DEG         0.0730
     14 O6         54.3100   -8.8470   24.4620 O.3       1 DEG        -0.3924
     15 O1         55.5360  -13.6260   23.6130 O.3       1 DEG        -0.3487
     16 C1         54.4120  -12.7620   23.5360 C.3       1 DEG         0.1879
     17 H1         58.2389  -14.1543   23.6683 H         1 DEG         0.0263
     18 H2         58.0659  -13.5836   25.3627 H         1 DEG         0.0263
     19 H3         60.1802  -14.8409   25.0499 H         1 DEG         0.0230
     20 H4         59.2454  -16.2660   24.4824 H         1 DEG         0.0230
     21 H5         59.0725  -15.6952   26.1768 H         1 DEG         0.0230
     22 H6         55.7059  -13.5935   25.6740 H         1 DEG         0.0561
     23 H7         54.6813  -14.9041   24.9964 H         1 DEG         0.0561
     24 H8         56.8107  -15.8194   25.7773 H         1 DEG         0.0287
     25 H9         56.7026  -15.9336   23.9879 H         1 DEG         0.0287
     26 H10        54.0570  -13.7307   21.6293 H         1 DEG         0.0671
     27 H11        52.5655  -12.0110   21.0601 H         1 DEG         0.2101
     28 H12        56.1135  -12.3882   21.4636 H         1 DEG         0.0648
     29 H13        54.7506  -12.4168   19.6208 H         1 DEG         0.2100
     30 H14        54.3944   -9.9673   22.1711 H         1 DEG         0.0647
     31 H15        56.4881   -8.9676   22.1627 H         1 DEG         0.2100
     32 H16        56.5916  -11.2435   23.8550 H         1 DEG         0.0647
     33 H17        56.3787   -8.8439   24.2319 H         1 DEG         0.0584
     34 H18        55.7578   -9.7567   25.6489 H         1 DEG         0.0584
     35 H19        54.3169   -8.0497   24.9786 H         1 DEG         0.2095
     36 H20        53.5570  -13.2762   23.9992 H         1 DEG         0.0937
@<TRIPOS>BOND
     1    1    2 1  
     2    4    1 1  
     3    3    4 1  
     4   15    3 1  
     5    5    6 1  
     6    5    7 1  
     7   16    5 1  
     8    7    8 1  
     9    7    9 1  
    10    9   10 1  
    11   11    9 1  
    12   12   11 1  
    13   11   13 1  
    14   16   12 1  
    15   13   14 1  
    16   15   16 1  
    17    1   17 1  
    18    1   18 1  
    19    2   19 1  
    20    2   20 1  
    21    2   21 1  
    22    3   22 1  
    23    3   23 1  
    24    4   24 1  
    25    4   25 1  
    26    5   26 1  
    27    6   27 1  
    28    7   28 1  
    29    8   29 1  
    30    9   30 1  
    31   10   31 1  
    32   11   32 1  
    33   13   33 1  
    34   13   34 1  
    35   14   35 1  
    36   16   36 1  
@<TRIPOS>SUBSTRUCTURE
     1 DEG         1

