### 
### Created by X-TOOL on Mon Sep 10 21:12:46 2018
### 

@<TRIPOS>MOLECULE
1tsm_ligand
   46    50     1     0     0
SMALL
GAST_HUCK


@<TRIPOS>ATOM
      1 C1         19.1400   52.3650  -54.5110 C.2       1 MR2         0.3305
      2 C2         19.2490   51.3070  -53.6750 C.ar      1 MR2         0.1857
      3 C3         19.1820   49.9760  -54.2220 C.ar      1 MR2         0.0745
      4 C4         19.1520   48.8770  -53.3460 C.ar      1 MR2         0.0597
      5 C5         19.2090   49.0770  -51.9510 C.ar      1 MR2         0.0672
      6 C6         19.3070   50.4360  -51.4290 C.ar      1 MR2         0.1587
      7 C7         19.2630   50.6410  -49.9950 C.ar      1 MR2         0.2108
      8 C8         19.1980   52.0120  -49.4880 C.ar      1 MR2         0.0889
      9 C9         19.2130   53.0780  -50.3440 C.ar      1 MR2         0.0483
     10 C10        19.2950   52.8300  -51.8180 C.ar      1 MR2         0.0471
     11 C11        19.3150   51.5100  -52.3070 C.ar      1 MR2         0.1327
     12 C12        19.1620   53.9250  -52.7170 C.3       1 MR2         0.1303
     13 C13        17.9460   54.6200  -52.4750 C.ar      1 MR2        -0.0447
     14 C14        16.7900   53.9210  -51.9750 C.ar      1 MR2        -0.0488
     15 C15        15.6380   54.6100  -51.6260 C.ar      1 MR2         0.0012
     16 C16        15.5790   55.9860  -51.8940 C.ar      1 MR2         0.1288
     17 C17        16.6990   56.6870  -52.3590 C.ar      1 MR2         0.0012
     18 C18        17.8610   56.0240  -52.6880 C.ar      1 MR2        -0.0488
     19 C19        20.2990   54.8550  -52.7160 C.ar      1 MR2        -0.0447
     20 C20        20.9020   55.2200  -53.9520 C.ar      1 MR2        -0.0488
     21 C21        21.9710   56.1140  -54.0190 C.ar      1 MR2         0.0012
     22 C22        22.4350   56.7200  -52.8440 C.ar      1 MR2         0.1288
     23 C23        21.7880   56.4720  -51.6250 C.ar      1 MR2         0.0012
     24 C24        20.7650   55.5330  -51.5290 C.ar      1 MR2        -0.0488
     25 N1         19.2800   49.4160  -48.9600 N.2       1 MR2        -0.1323
     26 O1         19.0840   53.5120  -54.1160 O.3       1 MR2        -0.3219
     27 O2         19.1240   52.1170  -55.7070 O.2       1 MR2        -0.3033
     28 O3         14.3100   56.6030  -51.8670 O.3       1 MR2        -0.3057
     29 O4         23.6010   57.5340  -52.8860 O.3       1 MR2        -0.3057
     30 O5         18.8190   49.6150  -47.8250 O.2       1 MR2        -0.4477
     31 O6         19.7410   48.4290  -49.3730 O.2       1 MR2        -0.4477
     32 H1         19.1551   49.8239  -55.2949 H         1 MR2         0.1215
     33 H2         19.0847   47.8711  -53.7445 H         1 MR2         0.1171
     34 H3         19.1803   48.2306  -51.2743 H         1 MR2         0.1581
     35 H4         19.1371   52.1848  -48.4196 H         1 MR2         0.1227
     36 H5         19.1661   54.0906  -49.9599 H         1 MR2         0.1226
     37 H6         16.8208   52.8425  -51.8701 H         1 MR2         0.0778
     38 H7         14.8046   54.0985  -51.1582 H         1 MR2         0.0670
     39 H8         16.6508   57.7651  -52.4613 H         1 MR2         0.0670
     40 H9         18.7018   56.5665  -53.1048 H         1 MR2         0.0778
     41 H10        20.5188   54.7900  -54.8703 H         1 MR2         0.0778
     42 H11        22.4382   56.3377  -54.9712 H         1 MR2         0.0670
     43 H12        22.0901   57.0218  -50.7409 H         1 MR2         0.0670
     44 H13        20.3193   55.3112  -50.5660 H         1 MR2         0.0778
     45 H14        13.6686   55.9907  -51.5260 H         1 MR2         0.2657
     46 H15        23.3924   58.4012  -52.5588 H         1 MR2         0.2657
@<TRIPOS>BOND
     1    1    2 1  
     2    1   26 1  
     3    1   27 2  
     4    2    3 ar 
     5    2   11 ar 
     6    3    4 ar 
     7    4    5 ar 
     8    5    6 ar 
     9    6    7 ar 
    10    6   11 ar 
    11    7    8 ar 
    12    7   25 1  
    13    8    9 ar 
    14    9   10 ar 
    15   10   11 ar 
    16   10   12 1  
    17   12   13 1  
    18   12   19 1  
    19   12   26 1  
    20   13   14 ar 
    21   13   18 ar 
    22   14   15 ar 
    23   15   16 ar 
    24   16   17 ar 
    25   16   28 1  
    26   17   18 ar 
    27   19   20 ar 
    28   19   24 ar 
    29   20   21 ar 
    30   21   22 ar 
    31   22   23 ar 
    32   22   29 1  
    33   23   24 ar 
    34   25   30 2  
    35   25   31 2  
    36    3   32 1  
    37    4   33 1  
    38    5   34 1  
    39    8   35 1  
    40    9   36 1  
    41   14   37 1  
    42   15   38 1  
    43   17   39 1  
    44   18   40 1  
    45   20   41 1  
    46   21   42 1  
    47   23   43 1  
    48   24   44 1  
    49   28   45 1  
    50   29   46 1  
@<TRIPOS>SUBSTRUCTURE
     1 MR2         1

