### 
### Created by X-TOOL on Mon Sep 10 21:12:52 2018
### 

@<TRIPOS>MOLECULE
1tt1_ligand
   29    29     1     0     0
SMALL
GAST_HUCK


@<TRIPOS>ATOM
      1 N           2.1690    0.5040   24.1980 N.4       1 KAI         0.2433
      2 CD          0.8890    0.0040   24.8850 C.3       1 KAI        -0.0169
      3 CD1        -0.9750   -0.0870   27.1820 C.2       1 KAI        -0.1288
      4 CD2         0.7020   -0.2880   28.9520 C.3       1 KAI        -0.0295
      5 CA          3.1870    0.7010   25.2160 C.3       1 KAI         0.0373
      6 CB          2.4360    0.9210   26.5050 C.3       1 KAI         0.0449
      7 CB1         1.8050    2.3820   26.7350 C.3       1 KAI         0.0124
      8 CG          1.3620   -0.1190   26.4070 C.3       1 KAI         0.0446
      9 CG1         2.8530    3.3780   27.2490 C.2       1 KAI         0.0356
     10 CG2         0.2610   -0.1620   27.5430 C.2       1 KAI        -0.0678
     11 C           4.2550   -0.4590   25.2630 C.2       1 KAI         0.0851
     12 O           4.3490   -1.1400   24.2180 O.co2     1 KAI        -0.5642
     13 OD1         2.4780    4.5590   27.2590 O.co2     1 KAI        -0.5690
     14 OD2         3.9750    2.9610   27.6130 O.co2     1 KAI        -0.5690
     15 OXT         4.9320   -0.5650   26.3310 O.co2     1 KAI        -0.5642
     16 H1          1.9847    1.3761   23.7273 H         1 KAI         0.2032
     17 H2          2.4852   -0.1793   23.5278 H         1 KAI         0.2032
     18 H3          0.5734   -0.9703   24.4837 H         1 KAI         0.0845
     19 H4          0.0679    0.7281   24.7780 H         1 KAI         0.0845
     20 H5         -1.7639   -0.1130   27.9322 H         1 KAI         0.0075
     21 H6         -1.2296    0.0023   26.1270 H         1 KAI         0.0075
     22 H7         -0.1781   -0.3033   29.6117 H         1 KAI         0.0425
     23 H8          1.3417    0.5677   29.2139 H         1 KAI         0.0425
     24 H9          1.2697   -1.2219   29.0764 H         1 KAI         0.0425
     25 H10         3.7372    1.6240   24.9809 H         1 KAI         0.1031
     26 H11         3.1016    0.7098   27.3549 H         1 KAI         0.0424
     27 H12         0.9923    2.3073   27.4725 H         1 KAI         0.0438
     28 H13         1.4012    2.7503   25.7804 H         1 KAI         0.0438
     29 H14         1.8626   -1.0942   26.4981 H         1 KAI         0.0554
@<TRIPOS>BOND
     1    2    1 1  
     2    5    1 1  
     3    8    2 1  
     4   10    3 2  
     5   10    4 1  
     6    6    5 1  
     7    5   11 1  
     8    6    7 1  
     9    8    6 1  
    10    7    9 1  
    11    8   10 1  
    12    9   13 ar 
    13    9   14 ar 
    14   11   12 ar 
    15   11   15 ar 
    16    1   16 1  
    17    1   17 1  
    18    2   18 1  
    19    2   19 1  
    20    3   20 1  
    21    3   21 1  
    22    4   22 1  
    23    4   23 1  
    24    4   24 1  
    25    5   25 1  
    26    6   26 1  
    27    7   27 1  
    28    7   28 1  
    29    8   29 1  
@<TRIPOS>SUBSTRUCTURE
     1 KAI         1

