### 
### Created by X-TOOL on Mon Sep 10 21:12:53 2018
### 

@<TRIPOS>MOLECULE
1ttv_ligand
   55    58     1     0     0
SMALL
GAST_HUCK


@<TRIPOS>ATOM
      1 C1          0.6440  -11.1960   -5.4440 C.2       1 IMY         0.1029
      2 N2          1.4240  -10.4670   -4.6570 N.2       1 IMY        -0.3527
      3 C3          0.9760   -9.0420   -4.7240 C.3       1 IMY         0.0571
      4 C4          0.3060   -9.0460   -6.1420 C.3       1 IMY         0.0930
      5 N5         -0.0990  -10.4510   -6.2610 N.pl3     1 IMY        -0.2809
      6 C13         0.0450   -8.6670   -3.5810 C.ar      1 IMY        -0.0311
      7 C14        -0.1620   -7.3100   -3.2830 C.ar      1 IMY        -0.0589
      8 C15        -1.0920   -6.9200   -2.3140 C.ar      1 IMY        -0.0546
      9 C16        -1.8440   -7.8730   -1.6480 C.ar      1 IMY         0.0330
     10 C17        -1.6230   -9.2170   -1.8970 C.ar      1 IMY        -0.0546
     11 C18        -0.6870   -9.6190   -2.8480 C.ar      1 IMY        -0.0589
     12 CL16       -3.0400   -7.3960   -0.5130 Cl        1 IMY        -0.0771
     13 C20        -0.5060   -6.7760   -6.8770 C.ar      1 IMY        -0.0573
     14 C21        -1.5120   -5.8680   -7.2050 C.ar      1 IMY        -0.0545
     15 C22        -2.8440   -6.2600   -7.1470 C.ar      1 IMY         0.0330
     16 C23        -3.1760   -7.5540   -6.7660 C.ar      1 IMY        -0.0545
     17 C24        -2.1670   -8.4790   -6.4940 C.ar      1 IMY        -0.0573
     18 C19        -0.8130   -8.1000   -6.5120 C.ar      1 IMY        -0.0145
     19 CL22       -4.0870   -5.1490   -7.5540 Cl        1 IMY        -0.0771
     20 C28         0.6430  -14.9250   -4.6430 C.ar      1 IMY         0.0054
     21 C29         0.9600  -13.5570   -4.5360 C.ar      1 IMY         0.1094
     22 C34         0.4930  -12.6590   -5.5200 C.ar      1 IMY         0.0583
     23 C25        -0.2700  -13.1740   -6.5940 C.ar      1 IMY        -0.0544
     24 C26        -0.5780  -14.5280   -6.6860 C.ar      1 IMY        -0.0335
     25 C27        -0.1260  -15.4060   -5.7020 C.ar      1 IMY         0.0918
     26 O3          1.7060  -13.0230   -3.4890 O.3       1 IMY        -0.3093
     27 C31         1.8230  -13.7690   -2.2520 C.3       1 IMY         0.0783
     28 C32         2.3360  -12.8770   -1.1200 C.3       1 IMY        -0.0340
     29 C33         0.4270  -14.2710   -1.9010 C.3       1 IMY        -0.0340
     30 O2         -0.4060  -16.7630   -5.6500 O.3       1 IMY        -0.3180
     31 C30        -0.8740  -17.3610   -6.8650 C.3       1 IMY         0.0613
     32 H1          1.8355   -8.3559   -4.7038 H         1 IMY         0.0555
     33 H2          1.1028   -8.8393   -6.8716 H         1 IMY         0.0757
     34 H3         -0.8420  -10.8060   -6.8798 H         1 IMY         0.1915
     35 H4          0.4073   -6.5541   -3.8117 H         1 IMY         0.0557
     36 H5         -1.2244   -5.8690   -2.0838 H         1 IMY         0.0606
     37 H6         -2.1836   -9.9640   -1.3467 H         1 IMY         0.0606
     38 H7         -0.5213  -10.6756   -3.0247 H         1 IMY         0.0557
     39 H8          0.5296   -6.4568   -6.9036 H         1 IMY         0.0558
     40 H9         -1.2556   -4.8583   -7.5047 H         1 IMY         0.0606
     41 H10        -4.2168   -7.8447   -6.6801 H         1 IMY         0.0606
     42 H11        -2.4311   -9.5052   -6.2654 H         1 IMY         0.0558
     43 H12         1.0030  -15.6158   -3.8892 H         1 IMY         0.0484
     44 H13        -0.6233  -12.4977   -7.3639 H         1 IMY         0.0642
     45 H14        -1.1661  -14.8979   -7.5181 H         1 IMY         0.0485
     46 H15         2.5095  -14.6174   -2.3899 H         1 IMY         0.0650
     47 H16         2.4151  -13.4673   -0.1952 H         1 IMY         0.0259
     48 H17         1.6356  -12.0433   -0.9640 H         1 IMY         0.0259
     49 H18         3.3262  -12.4791   -1.3867 H         1 IMY         0.0259
     50 H19         0.4689  -14.8456   -0.9639 H         1 IMY         0.0259
     51 H20         0.0551  -14.9163   -2.7105 H         1 IMY         0.0259
     52 H21        -0.2502  -13.4134   -1.7752 H         1 IMY         0.0259
     53 H22        -1.0601  -18.4323   -6.6984 H         1 IMY         0.0582
     54 H23        -0.1137  -17.2388   -7.6505 H         1 IMY         0.0582
     55 H24        -1.8076  -16.8712   -7.1789 H         1 IMY         0.0582
@<TRIPOS>BOND
     1    1    2 2  
     2    1    5 1  
     3   22    1 1  
     4    2    3 1  
     5    4    3 1  
     6    3    6 1  
     7    3   32 1  
     8    5    4 1  
     9    4   18 1  
    10    4   33 1  
    11    6    7 ar 
    12    6   11 ar 
    13    7    8 ar 
    14    5   34 1  
    15    8    9 ar 
    16    7   35 1  
    17   10    9 ar 
    18    9   12 1  
    19   11   10 ar 
    20    8   36 1  
    21   10   37 1  
    22   13   14 ar 
    23   18   13 ar 
    24   11   38 1  
    25   14   15 ar 
    26   13   39 1  
    27   16   15 ar 
    28   15   19 1  
    29   17   16 ar 
    30   14   40 1  
    31   18   17 ar 
    32   16   41 1  
    33   21   20 ar 
    34   20   25 ar 
    35   17   42 1  
    36   21   22 ar 
    37   21   26 1  
    38   22   23 ar 
    39   23   24 ar 
    40   20   43 1  
    41   24   25 ar 
    42   23   44 1  
    43   25   30 1  
    44   26   27 1  
    45   27   28 1  
    46   27   29 1  
    47   24   45 1  
    48   27   46 1  
    49   28   47 1  
    50   28   48 1  
    51   28   49 1  
    52   29   50 1  
    53   29   51 1  
    54   30   31 1  
    55   29   52 1  
    56   31   53 1  
    57   31   54 1  
    58   31   55 1  
@<TRIPOS>SUBSTRUCTURE
     1 IMY         1

