### 
### Created by X-TOOL on Mon Sep 10 21:12:51 2018
### 

@<TRIPOS>MOLECULE
1tu6_ligand
   63    65     1     0     0
SMALL
GAST_HUCK


@<TRIPOS>ATOM
      1 C1         58.8930  -76.4580  142.0490 C.3       1 FSP        -0.0653
      2 C2         58.1060  -75.4250  142.9000 C.3       1 FSP        -0.0558
      3 C3         58.4740  -75.5790  144.3850 C.3       1 FSP        -0.0510
      4 C4         60.0060  -75.5190  144.5440 C.3       1 FSP        -0.0253
      5 C5         60.4470  -75.4470  146.0620 C.3       1 FSP         0.0873
      6 N6         59.5100  -74.6350  146.7770 N.am      1 FSP        -0.2547
      7 C7         58.9070  -75.1030  147.8670 C.2       1 FSP         0.3200
      8 O8         58.8110  -76.3180  148.0480 O.2       1 FSP        -0.3775
      9 O9         58.4440  -74.2650  148.7330 O.3       1 FSP        -0.2632
     10 C10        57.6960  -74.8740  149.7560 C.3       1 FSP         0.0846
     11 C11        56.7050  -73.8480  150.2680 C.3       1 FSP         0.0075
     12 C12        55.6210  -73.4330  149.2050 C.3       1 FSP        -0.0129
     13 C13        55.0750  -74.6610  148.4890 C.ar      1 FSP        -0.0462
     14 C14        55.3460  -74.8540  147.1460 C.ar      1 FSP        -0.0620
     15 C15        54.8510  -75.9710  146.4920 C.ar      1 FSP        -0.0349
     16 C16        54.0850  -76.8900  147.1780 C.ar      1 FSP         0.1248
     17 F17        53.6080  -77.9670  146.5440 F         1 FSP        -0.1893
     18 C18        53.8100  -76.7010  148.5260 C.ar      1 FSP        -0.0349
     19 C19        54.3000  -75.5900  149.1800 C.ar      1 FSP        -0.0620
     20 C20        56.1170  -74.2210  151.6250 C.3       1 FSP        -0.0432
     21 C21        56.8490  -73.0330  152.2570 C.3       1 FSP        -0.0516
     22 C22        57.4120  -72.6440  150.8690 C.3       1 FSP        -0.0432
     23 C25        62.8470  -75.3900  145.1720 C.2       1 FSP         0.2310
     24 O26        63.0330  -76.6040  145.2030 O.2       1 FSP        -0.3840
     25 N27        63.5180  -74.6080  144.3000 N.am      1 FSP        -0.2326
     26 C28        64.1880  -75.1430  143.2440 C.2       1 FSP         0.1088
     27 C29        63.5900  -75.7300  142.1670 C.2       1 FSP        -0.0248
     28 C30        64.5960  -76.1330  141.3410 C.2       1 FSP         0.0386
     29 N31        65.8060  -75.7760  141.9430 N.pl3     1 FSP        -0.2398
     30 N32        65.5490  -75.1540  143.1370 N.2       1 FSP        -0.2237
     31 C23        61.7910  -74.7360  146.0540 C.3       1 FSP         0.1711
     32 O24        61.8630  -73.4250  146.2750 O.3       1 FSP        -0.3686
     33 H1         58.6238  -76.3408  140.9889 H         1 FSP         0.0230
     34 H2         58.6399  -77.4756  142.3812 H         1 FSP         0.0230
     35 H3         59.9728  -76.2894  142.1739 H         1 FSP         0.0230
     36 H4         57.0266  -75.5945  142.7726 H         1 FSP         0.0263
     37 H5         58.3595  -74.4083  142.5653 H         1 FSP         0.0263
     38 H6         58.1046  -76.5465  144.7558 H         1 FSP         0.0266
     39 H7         58.0133  -74.7645  144.9632 H         1 FSP         0.0266
     40 H8         60.3815  -74.6258  144.0233 H         1 FSP         0.0290
     41 H9         60.4448  -76.4197  144.0900 H         1 FSP         0.0290
     42 H10        60.5206  -76.4490  146.5098 H         1 FSP         0.0607
     43 H11        59.3072  -73.7101  146.4554 H         1 FSP         0.1873
     44 H12        58.3630  -75.1912  150.5711 H         1 FSP         0.0618
     45 H13        57.1598  -75.7488  149.3595 H         1 FSP         0.0618
     46 H14        56.0784  -72.7578  148.4669 H         1 FSP         0.0425
     47 H15        54.7952  -72.9145  149.7142 H         1 FSP         0.0425
     48 H16        55.9459  -74.1311  146.6051 H         1 FSP         0.0547
     49 H17        55.0661  -76.1225  145.4404 H         1 FSP         0.0587
     50 H18        53.2105  -77.4264  149.0640 H         1 FSP         0.0587
     51 H19        54.0822  -75.4396  150.2312 H         1 FSP         0.0547
     52 H20        56.4410  -75.2022  152.0022 H         1 FSP         0.0273
     53 H21        55.0203  -74.1528  151.6750 H         1 FSP         0.0273
     54 H22        57.6181  -73.3175  152.9902 H         1 FSP         0.0266
     55 H23        56.1823  -72.2780  152.6991 H         1 FSP         0.0266
     56 H24        57.0543  -71.6747  150.4915 H         1 FSP         0.0273
     57 H25        58.5091  -72.6825  150.7992 H         1 FSP         0.0273
     58 H26        63.5226  -73.6169  144.4328 H         1 FSP         0.2206
     59 H27        62.5207  -75.8522  142.0006 H         1 FSP         0.0306
     60 H28        64.4786  -76.6412  140.3850 H         1 FSP         0.0967
     61 H29        66.7422  -75.9524  141.5514 H         1 FSP         0.2467
     62 H30        62.1585  -75.0713  147.0350 H         1 FSP         0.0865
     63 H31        62.6893  -73.2211  146.6971 H         1 FSP         0.2134
@<TRIPOS>BOND
     1    2    1 1  
     2    3    2 1  
     3    4    3 1  
     4    5    4 1  
     5    5    6 1  
     6   31    5 1  
     7    6    7 am 
     8    7    8 2  
     9    7    9 1  
    10    9   10 1  
    11   10   11 1  
    12   11   12 1  
    13   11   20 1  
    14   11   22 1  
    15   12   13 1  
    16   13   14 ar 
    17   13   19 ar 
    18   14   15 ar 
    19   15   16 ar 
    20   16   17 1  
    21   18   16 ar 
    22   19   18 ar 
    23   20   21 1  
    24   22   21 1  
    25   23   24 2  
    26   23   25 am 
    27   23   31 1  
    28   25   26 1  
    29   26   27 1  
    30   26   30 2  
    31   27   28 2  
    32   28   29 1  
    33   29   30 1  
    34   31   32 1  
    35    1   33 1  
    36    1   34 1  
    37    1   35 1  
    38    2   36 1  
    39    2   37 1  
    40    3   38 1  
    41    3   39 1  
    42    4   40 1  
    43    4   41 1  
    44    5   42 1  
    45    6   43 1  
    46   10   44 1  
    47   10   45 1  
    48   12   46 1  
    49   12   47 1  
    50   14   48 1  
    51   15   49 1  
    52   18   50 1  
    53   19   51 1  
    54   20   52 1  
    55   20   53 1  
    56   21   54 1  
    57   21   55 1  
    58   22   56 1  
    59   22   57 1  
    60   25   58 1  
    61   27   59 1  
    62   28   60 1  
    63   29   61 1  
    64   31   62 1  
    65   32   63 1  
@<TRIPOS>SUBSTRUCTURE
     1 FSP         1

