### 
### Created by X-TOOL on Fri Sep 26 17:34:26 2014
### 

@<TRIPOS>MOLECULE
1tuf_ligand
   27    26     1     0     0
SMALL
GAST_HUCK


@<TRIPOS>ATOM
      1 C1         55.8270   12.0530   20.1930 C.2       1 AZ1         0.0348
      2 C2         57.2020   12.3620   20.7970 C.3       1 AZ1         0.0002
      3 C3         58.1500   13.3320   21.5110 C.3       1 AZ1        -0.0414
      4 C4         59.6030   13.1790   21.9690 C.3       1 AZ1        -0.0516
      5 C5         60.4950   11.9840   21.6530 C.3       1 AZ1        -0.0529
      6 C6         61.9830   12.2750   21.4350 C.3       1 AZ1        -0.0516
      7 C7         62.7800   12.4650   20.1360 C.3       1 AZ1        -0.0414
      8 C8         64.1710   13.0970   20.0820 C.3       1 AZ1         0.0002
      9 C9         65.2970   12.2710   20.6740 C.2       1 AZ1         0.0348
     10 O1         55.5610   10.8470   19.6280 O.co2     1 AZ1        -0.5690
     11 O2         54.9470   12.9130   20.2240 O.co2     1 AZ1        -0.5690
     12 O3         65.6090   11.0730   20.0780 O.co2     1 AZ1        -0.5690
     13 O4         65.8720   12.7200   21.6800 O.co2     1 AZ1        -0.5690
     14 H1         57.8219   12.1459   19.9144 H         1 AZ1         0.0430
     15 H2         57.2642   11.5212   21.5035 H         1 AZ1         0.0430
     16 H3         57.6114   13.5905   22.4346 H         1 AZ1         0.0283
     17 H4         58.1773   14.2073   20.8453 H         1 AZ1         0.0283
     18 H5         59.5733   13.2414   23.0668 H         1 AZ1         0.0266
     19 H6         60.1320   14.0553   21.5661 H         1 AZ1         0.0266
     20 H7         60.1096   11.5135   20.7364 H         1 AZ1         0.0265
     21 H8         60.4131   11.2761   22.4909 H         1 AZ1         0.0265
     22 H9         62.4942   11.4434   21.9420 H         1 AZ1         0.0266
     23 H10        62.1568   13.2070   21.9929 H         1 AZ1         0.0266
     24 H11        62.1452   13.0803   19.4816 H         1 AZ1         0.0283
     25 H12        62.8897   11.4605   19.7014 H         1 AZ1         0.0283
     26 H13        64.1294   14.0508   20.6284 H         1 AZ1         0.0430
     27 H14        64.4131   13.2894   19.0264 H         1 AZ1         0.0430
@<TRIPOS>BOND
     1    1    2 1  
     2    1   10 ar 
     3    1   11 ar 
     4    2    3 1  
     5    3    4 1  
     6    4    5 1  
     7    5    6 1  
     8    6    7 1  
     9    7    8 1  
    10    8    9 1  
    11    9   12 ar 
    12    9   13 ar 
    13    2   14 1  
    14    2   15 1  
    15    3   16 1  
    16    3   17 1  
    17    4   18 1  
    18    4   19 1  
    19    5   20 1  
    20    5   21 1  
    21    6   22 1  
    22    6   23 1  
    23    7   24 1  
    24    7   25 1  
    25    8   26 1  
    26    8   27 1  
@<TRIPOS>SUBSTRUCTURE
     1 AZ1         1

