### 
### Created by X-TOOL on Mon Sep 10 21:12:52 2018
### 

@<TRIPOS>MOLECULE
1tv6_ligand
   43    47     1     0     0
SMALL
GAST_HUCK


@<TRIPOS>ATOM
      1 S1        146.4450  -23.0100   76.4920 S.3       1 CP9         0.0255
      2 C2        145.2900  -24.2080   77.0790 C.2       1 CP9         0.2793
      3 N3        144.0180  -23.9100   76.5880 N.am      1 CP9        -0.2007
      4 C4        143.9480  -22.7630   75.7770 C.ar      1 CP9         0.0884
      5 C5        145.1990  -22.1430   75.6080 C.ar      1 CP9         0.0606
      6 C6        145.3340  -20.9720   74.8220 C.ar      1 CP9        -0.0600
      7 C7        144.1860  -20.4470   74.1950 C.ar      1 CP9        -0.0824
      8 C8        142.9280  -21.0790   74.3600 C.ar      1 CP9        -0.0817
      9 C9        142.7890  -22.2350   75.1400 C.ar      1 CP9        -0.0454
     10 C10       142.8560  -24.7560   76.9410 C.3       1 CP9         0.0859
     11 C11       142.5260  -25.9390   76.0540 C.ar      1 CP9        -0.0230
     12 C12       142.9550  -27.2350   76.3120 C.ar      1 CP9        -0.0630
     13 C13       142.6080  -28.3110   75.4630 C.ar      1 CP9        -0.0354
     14 C14       141.8020  -28.0970   74.3040 C.ar      1 CP9         0.0915
     15 C15       141.3680  -26.7730   74.0460 C.ar      1 CP9        -0.0354
     16 C16       141.7270  -25.7200   74.9120 C.ar      1 CP9        -0.0630
     17 N17       141.4120  -29.2370   73.3770 N.pl3     1 CP9        -0.1834
     18 C18       140.6240  -29.2310   72.1610 C.2       1 CP9         0.1397
     19 N19       140.5010  -30.4240   71.6230 N.2       1 CP9        -0.3057
     20 C20       141.1940  -31.2900   72.4430 C.ar      1 CP9         0.0518
     21 C21       141.7840  -30.6120   73.5520 C.ar      1 CP9         0.1147
     22 C22       142.5430  -31.3290   74.5230 C.ar      1 CP9        -0.0133
     23 C23       142.6680  -32.7120   74.2960 C.ar      1 CP9        -0.0067
     24 N24       142.1200  -33.3820   73.2420 N.ar      1 CP9        -0.3185
     25 C25       141.3960  -32.6770   72.3310 C.ar      1 CP9         0.0063
     26 C26       139.9980  -28.0330   71.5290 C.3       1 CP9         0.0222
     27 O27       145.5900  -25.1500   77.8040 O.2       1 CP9        -0.3762
     28 H1        146.2983  -20.4907   74.7055 H         1 CP9         0.0528
     29 H2        144.2655  -19.5555   73.5835 H         1 CP9         0.0473
     30 H3        142.0553  -20.6594   73.8727 H         1 CP9         0.0524
     31 H4        141.8239  -22.7149   75.2555 H         1 CP9         0.0485
     32 H5        141.9709  -24.1029   76.9535 H         1 CP9         0.0736
     33 H6        143.0360  -25.1491   77.9525 H         1 CP9         0.0736
     34 H7        143.5698  -27.4256   77.1842 H         1 CP9         0.0539
     35 H8        142.9581  -29.3104   75.6948 H         1 CP9         0.0556
     36 H9        140.7550  -26.5681   73.1758 H         1 CP9         0.0556
     37 H10       141.3802  -24.7162   74.6948 H         1 CP9         0.0539
     38 H11       142.9939  -30.8409   75.3795 H         1 CP9         0.0642
     39 H12       143.2427  -33.2879   75.0123 H         1 CP9         0.0709
     40 H13       140.9597  -33.2029   71.4895 H         1 CP9         0.0752
     41 H14       139.4630  -28.3369   70.6172 H         1 CP9         0.0502
     42 H15       140.7802  -27.3044   71.2695 H         1 CP9         0.0502
     43 H16       139.2893  -27.5745   72.2343 H         1 CP9         0.0502
@<TRIPOS>BOND
     1    1    2 1  
     2    1    5 1  
     3    2    3 am 
     4    2   27 2  
     5    3    4 1  
     6    3   10 1  
     7    4    5 ar 
     8    4    9 ar 
     9    5    6 ar 
    10    6    7 ar 
    11    7    8 ar 
    12    8    9 ar 
    13   10   11 1  
    14   11   12 ar 
    15   11   16 ar 
    16   12   13 ar 
    17   13   14 ar 
    18   14   15 ar 
    19   14   17 1  
    20   15   16 ar 
    21   17   18 1  
    22   17   21 1  
    23   18   19 2  
    24   18   26 1  
    25   19   20 1  
    26   20   21 ar 
    27   20   25 ar 
    28   21   22 ar 
    29   22   23 ar 
    30   23   24 ar 
    31   24   25 ar 
    32    6   28 1  
    33    7   29 1  
    34    8   30 1  
    35    9   31 1  
    36   10   32 1  
    37   10   33 1  
    38   12   34 1  
    39   13   35 1  
    40   15   36 1  
    41   16   37 1  
    42   22   38 1  
    43   23   39 1  
    44   25   40 1  
    45   26   41 1  
    46   26   42 1  
    47   26   43 1  
@<TRIPOS>SUBSTRUCTURE
     1 CP9         1

