### 
### Created by X-TOOL on Mon Sep 10 21:12:52 2018
### 

@<TRIPOS>MOLECULE
1tve_ligand
   43    44     1     0     0
SMALL
GAST_HUCK


@<TRIPOS>ATOM
      1 O          -4.8950   35.3630  -18.8670 O.3       1 178        -0.3412
      2 C1         -4.0130   36.3900  -18.6150 C.ar      1 178         0.0827
      3 C2         -2.6140   36.1520  -18.6410 C.ar      1 178        -0.0166
      4 C2A        -2.0890   34.7780  -18.9420 C.3       1 178        -0.0162
      5 C2B        -1.2680   34.2700  -17.7680 C.3       1 178        -0.0545
      6 C2G        -1.2260   34.8190  -20.1880 C.3       1 178        -0.0545
      7 C3         -1.7240   37.2080  -18.3830 C.ar      1 178        -0.0544
      8 C4         -2.2210   38.4950  -18.1020 C.ar      1 178         0.0103
      9 C5         -3.6080   38.7270  -18.0770 C.ar      1 178        -0.0634
     10 C6         -4.5000   37.6850  -18.3320 C.ar      1 178        -0.0452
     11 S          -1.1420   39.7700  -17.7890 S.3       1 178        -0.0631
     12 O'          1.1630   38.1690  -12.6140 O.3       1 178        -0.3412
     13 C1'         0.6180   38.5440  -13.8210 C.ar      1 178         0.0827
     14 C2'        -0.7670   38.8270  -13.9230 C.ar      1 178        -0.0166
     15 C2X        -1.6500   38.7190  -12.7130 C.3       1 178        -0.0162
     16 C2Y        -2.3050   40.0610  -12.4330 C.3       1 178        -0.0545
     17 C2Z        -2.7200   37.6700  -12.9470 C.3       1 178        -0.0545
     18 C3'        -1.3090   39.2080  -15.1590 C.ar      1 178        -0.0544
     19 C4'        -0.4810   39.3080  -16.2930 C.ar      1 178         0.0103
     20 C5'         0.8930   39.0270  -16.1900 C.ar      1 178        -0.0634
     21 C6'         1.4420   38.6470  -14.9660 C.ar      1 178        -0.0452
     22 H1         -5.7850   35.6903  -18.8103 H         1 178         0.2434
     23 H2         -2.9363   34.0974  -19.1116 H         1 178         0.0432
     24 H3         -0.8868   33.2635  -17.9954 H         1 178         0.0252
     25 H4         -1.9005   34.2280  -16.8691 H         1 178         0.0252
     26 H5         -0.4225   34.9507  -17.5900 H         1 178         0.0252
     27 H6         -1.8230   35.1870  -21.0355 H         1 178         0.0252
     28 H7         -0.8565   33.8073  -20.4116 H         1 178         0.0252
     29 H8         -0.3725   35.4925  -20.0209 H         1 178         0.0252
     30 H9         -0.6545   37.0319  -18.4003 H         1 178         0.0479
     31 H10        -3.9854   39.7194  -17.8587 H         1 178         0.0484
     32 H11        -5.5680   37.8696  -18.3129 H         1 178         0.0506
     33 H12         2.0948   38.0184  -12.7217 H         1 178         0.2434
     34 H13        -1.0399   38.4260  -11.8459 H         1 178         0.0432
     35 H14        -2.9503   39.9761  -11.5462 H         1 178         0.0252
     36 H15        -2.9114   40.3611  -13.3003 H         1 178         0.0252
     37 H16        -1.5276   40.8173  -12.2497 H         1 178         0.0252
     38 H17        -2.2438   36.6993  -13.1495 H         1 178         0.0252
     39 H18        -3.3377   37.9622  -13.8090 H         1 178         0.0252
     40 H19        -3.3545   37.5875  -12.0523 H         1 178         0.0252
     41 H20        -2.3677   39.4259  -15.2413 H         1 178         0.0479
     42 H21         1.5276   39.1061  -17.0653 H         1 178         0.0484
     43 H22         2.5015   38.4303  -14.8918 H         1 178         0.0506
@<TRIPOS>BOND
     1    2    1 1  
     2    3    2 ar 
     3   10    2 ar 
     4    3    4 1  
     5    7    3 ar 
     6    4    5 1  
     7    4    6 1  
     8    8    7 ar 
     9    8    9 ar 
    10   11    8 1  
    11    9   10 ar 
    12   19   11 1  
    13   13   12 1  
    14   14   13 ar 
    15   13   21 ar 
    16   14   15 1  
    17   18   14 ar 
    18   15   16 1  
    19   15   17 1  
    20   18   19 ar 
    21   19   20 ar 
    22   20   21 ar 
    23    1   22 1  
    24    4   23 1  
    25    5   24 1  
    26    5   25 1  
    27    5   26 1  
    28    6   27 1  
    29    6   28 1  
    30    6   29 1  
    31    7   30 1  
    32    9   31 1  
    33   10   32 1  
    34   12   33 1  
    35   15   34 1  
    36   16   35 1  
    37   16   36 1  
    38   16   37 1  
    39   17   38 1  
    40   17   39 1  
    41   17   40 1  
    42   18   41 1  
    43   20   42 1  
    44   21   43 1  
@<TRIPOS>SUBSTRUCTURE
     1 178         1

