### 
### Created by X-TOOL on Mon Sep 10 21:12:53 2018
### 

@<TRIPOS>MOLECULE
1tvo_ligand
   39    43     1     0     0
SMALL
GAST_HUCK


@<TRIPOS>ATOM
      1 C1         11.5040   -5.7240   14.4460 C.ar      1 FRZ        -0.0534
      2 C2         11.1560   -5.2580   15.7780 C.ar      1 FRZ         0.0098
      3 N3          9.8050   -4.9890   16.0940 N.ar      1 FRZ        -0.2607
      4 C4          8.7110   -5.1280   15.2100 C.ar      1 FRZ         0.0486
      5 C5          9.0180   -5.5610   13.8530 C.ar      1 FRZ        -0.0490
      6 C6         10.4020   -5.8570   13.4960 C.ar      1 FRZ        -0.0623
      7 N7          9.3480   -4.5910   17.4250 N.pl3     1 FRZ        -0.2028
      8 C8          7.9410   -4.5200   17.3180 C.2       1 FRZ         0.1200
      9 C9          7.5010   -4.8360   15.9620 C.2       1 FRZ         0.0607
     10 C10         6.1390   -4.8200   15.4290 C.ar      1 FRZ         0.1154
     11 C11         7.2430   -4.1580   18.5460 C.ar      1 FRZ         0.0250
     12 C12         7.8090   -3.1670   19.4580 C.ar      1 FRZ        -0.0456
     13 C13         7.0640   -2.6020   20.5780 C.ar      1 FRZ        -0.0571
     14 C14         5.6990   -3.0090   20.8540 C.ar      1 FRZ        -0.0582
     15 C15         5.1220   -4.0260   19.9930 C.ar      1 FRZ        -0.0571
     16 C16         5.8900   -4.5790   18.8870 C.ar      1 FRZ        -0.0456
     17 C22         5.2240   -3.6860   15.6090 C.ar      1 FRZ         0.0545
     18 C23         3.7830   -3.7150   15.4050 C.ar      1 FRZ         0.1689
     19 C24         3.0980   -4.9090   14.9750 C.ar      1 FRZ         0.2579
     20 N25         3.9300   -6.0350   14.7410 N.ar      1 FRZ        -0.1376
     21 N26         5.5090   -6.0060   14.9660 N.ar      1 FRZ        -0.1796
     22 C27         2.7430   -2.7440   15.6320 C.2       1 FRZ         0.2290
     23 N28         1.4710   -3.2920   15.3700 N.2       1 FRZ        -0.0796
     24 N29         1.7120   -4.6510   14.9570 N.pl3     1 FRZ        -0.1366
     25 N30         2.9010   -1.4330   16.1170 N.pl3     1 FRZ        -0.2957
     26 H1         12.5259   -5.9601   14.1722 H         1 FRZ         0.0623
     27 H2         11.9287   -5.1175   16.5252 H         1 FRZ         0.0690
     28 H3          8.2281   -5.6621   13.1175 H         1 FRZ         0.0629
     29 H4         10.6206   -6.1882   12.4873 H         1 FRZ         0.0598
     30 H5          9.9250   -4.4036   18.2574 H         1 FRZ         0.2593
     31 H6          8.8285   -2.8365   19.2952 H         1 FRZ         0.0659
     32 H7          7.5388   -1.8649   21.2154 H         1 FRZ         0.0628
     33 H8          5.1334   -2.5721   21.6690 H         1 FRZ         0.0647
     34 H9          4.1123   -4.3758   20.1752 H         1 FRZ         0.0628
     35 H10         5.4281   -5.3499   18.2809 H         1 FRZ         0.0659
     36 H11         5.6600   -2.7440   15.9214 H         1 FRZ         0.1324
     37 H12         0.9843   -5.3292   14.6899 H         1 FRZ         0.2816
     38 H13         2.0776   -0.8263   16.2390 H         1 FRZ         0.1909
     39 H14         3.8401   -1.0798   16.3501 H         1 FRZ         0.1909
@<TRIPOS>BOND
     1    1    2 ar 
     2    1    6 ar 
     3    2    3 ar 
     4    3    4 ar 
     5    3    7 1  
     6    4    5 ar 
     7    4    9 1  
     8    5    6 ar 
     9    7    8 1  
    10    8    9 2  
    11    8   11 1  
    12    9   10 1  
    13   10   17 ar 
    14   10   21 ar 
    15   11   12 ar 
    16   11   16 ar 
    17   12   13 ar 
    18   13   14 ar 
    19   14   15 ar 
    20   15   16 ar 
    21   17   18 ar 
    22   18   19 ar 
    23   18   22 1  
    24   19   20 ar 
    25   19   24 1  
    26   20   21 ar 
    27   22   23 2  
    28   22   25 1  
    29   23   24 1  
    30    1   26 1  
    31    2   27 1  
    32    5   28 1  
    33    6   29 1  
    34    7   30 1  
    35   12   31 1  
    36   13   32 1  
    37   14   33 1  
    38   15   34 1  
    39   16   35 1  
    40   17   36 1  
    41   24   37 1  
    42   25   38 1  
    43   25   39 1  
@<TRIPOS>SUBSTRUCTURE
     1 FRZ         1

