### 
### Created by X-TOOL on Mon Sep 10 21:12:46 2018
### 

@<TRIPOS>MOLECULE
1tvr_ligand
   42    44     1     0     0
SMALL
GAST_HUCK


@<TRIPOS>ATOM
      1 N1        141.5670  -25.8320   71.0180 N.am      1 TB9        -0.2340
      2 C1A       142.1760  -26.1780   72.2290 C.ar      1 TB9         0.0968
      3 C2        142.3710  -24.8230   70.3680 C.2       1 TB9         0.1796
      4 S2        141.9880  -24.1100   68.7930 S.2       1 TB9        -0.3154
      5 N3        143.5290  -24.5470   71.2420 N.am      1 TB9        -0.2153
      6 C3A       143.3280  -25.4150   72.3500 C.ar      1 TB9         0.1127
      7 C4        144.6870  -23.7730   70.8230 C.3       1 TB9         0.1012
      8 C5        145.3230  -22.8190   71.8420 C.3       1 TB9         0.0060
      9 N6        145.6460  -23.2790   73.2100 N.4       1 TB9         0.2552
     10 C7        145.5880  -24.7070   73.5000 C.3       1 TB9        -0.0025
     11 C7A       144.2390  -25.4430   73.4600 C.ar      1 TB9         0.0172
     12 C8        143.8930  -26.3640   74.5280 C.ar      1 TB9        -0.0659
     13 CL9       142.2520  -28.4010   75.5860 Cl        1 TB9        -0.0882
     14 C9        142.6630  -27.1740   74.3960 C.ar      1 TB9         0.0084
     15 C10       141.8300  -27.0560   73.2350 C.ar      1 TB9        -0.0414
     16 C11       146.6520  -22.5360   71.1970 C.3       1 TB9        -0.0190
     17 C12       145.7910  -22.2900   74.2910 C.3       1 TB9        -0.0236
     18 C13       144.5000  -22.2350   74.9610 C.2       1 TB9        -0.0650
     19 C14       144.1880  -21.7880   76.1850 C.2       1 TB9        -0.0823
     20 C15       142.6440  -21.8990   76.3480 C.3       1 TB9        -0.0404
     21 C16       145.3540  -21.2580   77.0590 C.3       1 TB9        -0.0404
     22 H1        140.7165  -26.2188   70.6616 H         1 TB9         0.2376
     23 H2        144.3804  -23.1688   69.9565 H         1 TB9         0.0666
     24 H3        145.4642  -24.4879   70.5150 H         1 TB9         0.0666
     25 H4        144.6995  -21.9163   71.9216 H         1 TB9         0.0876
     26 H5        146.6376  -23.3022   73.0307 H         1 TB9         0.2057
     27 H6        145.9942  -24.8425   74.5132 H         1 TB9         0.0950
     28 H7        146.2443  -25.2063   72.7720 H         1 TB9         0.0950
     29 H8        144.5239  -26.4559   75.4047 H         1 TB9         0.0416
     30 H9        140.9308  -27.6551   73.1481 H         1 TB9         0.0432
     31 H10       146.4923  -22.1858   70.1665 H         1 TB9         0.0285
     32 H11       147.2557  -23.4554   71.1823 H         1 TB9         0.0285
     33 H12       147.1800  -21.7598   71.7703 H         1 TB9         0.0285
     34 H13       146.0480  -21.3045   73.8754 H         1 TB9         0.0888
     35 H14       146.5741  -22.6063   74.9958 H         1 TB9         0.0888
     36 H15       143.6609  -22.6145   74.3797 H         1 TB9         0.0294
     37 H16       142.3538  -21.5386   77.3460 H         1 TB9         0.0375
     38 H17       142.3378  -22.9494   76.2342 H         1 TB9         0.0375
     39 H18       142.1492  -21.2874   75.5792 H         1 TB9         0.0375
     40 H19       146.3041  -21.3862   76.5197 H         1 TB9         0.0375
     41 H20       145.3897  -21.8209   78.0033 H         1 TB9         0.0375
     42 H21       145.1955  -20.1909   77.2740 H         1 TB9         0.0375
@<TRIPOS>BOND
     1    1    2 1  
     2    1    3 am 
     3    2    6 ar 
     4    2   15 ar 
     5    3    4 2  
     6    3    5 am 
     7    5    6 1  
     8    5    7 1  
     9    6   11 ar 
    10    7    8 1  
    11    8    9 1  
    12    8   16 1  
    13    9   10 1  
    14    9   17 1  
    15   10   11 1  
    16   11   12 ar 
    17   12   14 ar 
    18   14   13 1  
    19   14   15 ar 
    20   17   18 1  
    21   18   19 2  
    22   19   20 1  
    23   19   21 1  
    24    1   22 1  
    25    7   23 1  
    26    7   24 1  
    27    8   25 1  
    28    9   26 1  
    29   10   27 1  
    30   10   28 1  
    31   12   29 1  
    32   15   30 1  
    33   16   31 1  
    34   16   32 1  
    35   16   33 1  
    36   17   34 1  
    37   17   35 1  
    38   18   36 1  
    39   20   37 1  
    40   20   38 1  
    41   20   39 1  
    42   21   40 1  
    43   21   41 1  
    44   21   42 1  
@<TRIPOS>SUBSTRUCTURE
     1 TB9         1

