### 
### Created by X-TOOL on Mon Sep 10 21:12:45 2018
### 

@<TRIPOS>MOLECULE
1tyn_ligand
  101   104     1     0     0
SMALL
GAST_HUCK


@<TRIPOS>ATOM
      1 C1         93.1750  -10.4510   59.0030 C.2       1 CTA         0.1762
      2 C2         91.9840  -11.3020   58.9380 C.2       1 CTA        -0.0006
      3 C3         91.7300  -12.1370   59.9490 C.2       1 CTA        -0.0328
      4 C4         90.4580  -12.9230   60.0650 C.3       1 CTA         0.0881
      5 N5         90.0390  -13.3620   58.7390 N.am      1 CTA        -0.2650
      6 C6         88.8800  -12.9780   58.2240 C.2       1 CTA         0.2066
      7 C7         88.6130  -13.3610   56.7710 C.3       1 CTA         0.1405
      8 N8         88.3710  -12.1300   56.0280 N.am      1 CTA        -0.2616
      9 C9         88.8880  -11.9110   54.8270 C.2       1 CTA         0.2096
     10 C10        88.3430  -10.6100   54.1940 C.3       1 CTA         0.1663
     11 C11        89.3300   -9.4490   54.4200 C.3       1 CTA         0.0851
     12 N12        90.6510   -9.7720   53.9050 N.am      1 CTA        -0.2772
     13 C13        91.6580  -10.0950   54.7080 C.2       1 CTA         0.2023
     14 C14        93.0000  -10.3320   54.0280 C.3       1 CTA         0.1336
     15 C15        93.2370  -11.8090   53.7780 C.3       1 CTA        -0.0104
     16 C16        94.2310  -12.2970   54.7820 C.3       1 CTA        -0.0281
     17 C17        95.0890  -11.1010   55.1330 C.3       1 CTA         0.0369
     18 N18        94.1210   -9.9700   54.9060 N.am      1 CTA        -0.2498
     19 C19        94.2290   -8.7450   55.4410 C.2       1 CTA         0.2086
     20 C20        95.1840   -8.5840   56.6170 C.3       1 CTA         0.1512
     21 C21        94.3920   -8.5970   57.9290 C.3       1 CTA         0.0699
     22 N22        93.4330   -9.6970   57.9450 N.am      1 CTA        -0.2872
     23 O23        93.8850  -10.4570   60.0040 O.2       1 CTA        -0.4012
     24 C24        90.6480  -14.1270   60.9980 C.3       1 CTA         0.0126
     25 C25        91.6490  -15.1240   60.4610 C.ar      1 CTA        -0.0488
     26 C26        91.2110  -16.1370   59.6300 C.ar      1 CTA        -0.0685
     27 C27        92.1090  -17.0400   59.0990 C.ar      1 CTA        -0.0398
     28 C28        93.4460  -16.9130   59.4130 C.ar      1 CTA         0.0805
     29 C29        93.8960  -15.9050   60.2470 C.ar      1 CTA        -0.0398
     30 C30        92.9890  -15.0050   60.7750 C.ar      1 CTA        -0.0685
     31 O31        94.2980  -17.7620   58.9100 O.3       1 CTA        -0.3376
     32 O32        88.0640  -12.3030   58.8510 O.2       1 CTA        -0.3941
     33 C33        87.3780  -14.2590   56.6850 C.3       1 CTA         0.0214
     34 C34        87.6160  -15.6440   57.2530 C.ar      1 CTA        -0.0386
     35 C35        88.4520  -16.5300   56.5900 C.ar      1 CTA        -0.0601
     36 C36        88.6490  -17.8050   57.1010 C.ar      1 CTA        -0.0686
     37 C37        88.0090  -18.1910   58.2680 C.ar      1 CTA        -0.0687
     38 C38        87.1750  -17.3020   58.9270 C.ar      1 CTA        -0.0686
     39 C39        86.9760  -16.0280   58.4220 C.ar      1 CTA        -0.0601
     40 O40        89.7140  -12.6520   54.2990 O.2       1 CTA        -0.3940
     41 O41        87.0170  -10.3300   54.5180 O.3       1 CTA        -0.3691
     42 C42        88.8830   -8.1050   53.8360 C.3       1 CTA        -0.0221
     43 C43        89.6420   -6.9410   54.4410 C.3       1 CTA        -0.0175
     44 C44        89.3550   -5.6200   53.7610 C.3       1 CTA         0.0626
     45 N45        90.0250   -4.5320   54.4700 N.pl3     1 CTA        -0.2723
     46 C46        90.0500   -3.2700   54.0660 C.cat     1 CTA         0.2882
     47 N47        89.4220   -2.9190   52.9490 N.pl3     1 CTA        -0.2849
     48 N48        90.6920   -2.3580   54.7890 N.pl3     1 CTA        -0.2849
     49 O49        91.5410  -10.2060   55.9360 O.2       1 CTA        -0.3945
     50 O50        93.5660   -7.7830   55.0240 O.2       1 CTA        -0.3941
     51 N51        95.9120   -7.3310   56.4670 N.am      1 CTA        -0.2653
     52 C52        96.9570   -7.0180   57.2290 C.2       1 CTA         0.1716
     53 O53        97.3750   -7.7310   58.1500 O.2       1 CTA        -0.3830
     54 H1         91.3164  -11.2544   58.0789 H         1 CTA         0.0473
     55 H2         92.4832  -12.2527   60.7270 H         1 CTA         0.0870
     56 H3         89.6770  -12.2733   60.4868 H         1 CTA         0.0804
     57 H4         90.6368  -13.9634   58.2090 H         1 CTA         0.1893
     58 H5         89.4836  -13.8891   56.3549 H         1 CTA         0.0823
     59 H6         87.7937  -11.4248   56.4396 H         1 CTA         0.1885
     60 H7         88.3369  -10.7856   53.1081 H         1 CTA         0.0861
     61 H8         89.4167   -9.3160   55.5085 H         1 CTA         0.0607
     62 H9         90.8056   -9.7502   52.9173 H         1 CTA         0.1857
     63 H10        93.0364   -9.7619   53.0880 H         1 CTA         0.0802
     64 H11        93.6308  -11.9565   52.7616 H         1 CTA         0.0313
     65 H12        92.2927  -12.3621   53.8892 H         1 CTA         0.0313
     66 H13        94.8494  -13.0976   54.3500 H         1 CTA         0.0287
     67 H14        93.7160  -12.6743   55.6778 H         1 CTA         0.0287
     68 H15        95.9628  -11.0230   54.4694 H         1 CTA         0.0524
     69 H16        95.4256  -11.1395   56.1795 H         1 CTA         0.0524
     70 H17        95.9001   -9.4189   56.6224 H         1 CTA         0.0823
     71 H18        93.8506   -7.6451   58.0328 H         1 CTA         0.0567
     72 H19        95.0904   -8.7153   58.7706 H         1 CTA         0.0567
     73 H20        92.9369   -9.8950   57.0996 H         1 CTA         0.1834
     74 H21        89.6791  -14.6326   61.1230 H         1 CTA         0.0459
     75 H22        91.0010  -13.7641   61.9746 H         1 CTA         0.0459
     76 H23        90.1565  -16.2229   59.3939 H         1 CTA         0.0530
     77 H24        91.7694  -17.8358   58.4460 H         1 CTA         0.0525
     78 H25        94.9504  -15.8216   60.4844 H         1 CTA         0.0525
     79 H26        93.3271  -14.2111   61.4311 H         1 CTA         0.0530
     80 H27        93.8358  -18.3867   58.3635 H         1 CTA         0.2458
     81 H28        87.0886  -14.3578   55.6284 H         1 CTA         0.0474
     82 H29        86.5595  -13.7851   57.2466 H         1 CTA         0.0474
     83 H30        88.9498  -16.2275   55.6758 H         1 CTA         0.0557
     84 H31        89.3038  -18.4994   56.5871 H         1 CTA         0.0599
     85 H32        88.1608  -19.1881   58.6652 H         1 CTA         0.0559
     86 H33        86.6767  -17.6048   59.8408 H         1 CTA         0.0599
     87 H34        86.3228  -15.3338   58.9382 H         1 CTA         0.0557
     88 H35        86.7091   -9.6043   53.9879 H         1 CTA         0.2134
     89 H36        87.8096   -7.9708   54.0354 H         1 CTA         0.0291
     90 H37        89.0557   -8.1150   52.7497 H         1 CTA         0.0291
     91 H38        90.7195   -7.1477   54.3612 H         1 CTA         0.0300
     92 H39        89.3625   -6.8555   55.5015 H         1 CTA         0.0300
     93 H40        88.2699   -5.4396   53.7606 H         1 CTA         0.0689
     94 H41        89.7208   -5.6578   52.7243 H         1 CTA         0.0689
     95 H42        90.5131   -4.7626   55.3472 H         1 CTA         0.2642
     96 H43        89.4407   -1.9385   52.6340 H         1 CTA         0.2615
     97 H44        88.9164   -3.6274   52.3981 H         1 CTA         0.2615
     98 H45        91.1774   -2.6350   55.6542 H         1 CTA         0.2615
     99 H46        90.7041   -1.3742   54.4841 H         1 CTA         0.2615
    100 H47        95.6156   -6.6825   55.7658 H         1 CTA         0.1893
    101 H48        97.4742   -6.0804   57.0307 H         1 CTA         0.1545
@<TRIPOS>BOND
     1    1    2 1  
     2    1   22 am 
     3    1   23 2  
     4    2    3 2  
     5    3    4 1  
     6    4    5 1  
     7    4   24 1  
     8    5    6 am 
     9    6    7 1  
    10    6   32 2  
    11    7    8 1  
    12    7   33 1  
    13    8    9 am 
    14    9   10 1  
    15    9   40 2  
    16   10   11 1  
    17   10   41 1  
    18   11   12 1  
    19   11   42 1  
    20   12   13 am 
    21   13   14 1  
    22   13   49 2  
    23   14   15 1  
    24   14   18 1  
    25   15   16 1  
    26   16   17 1  
    27   17   18 1  
    28   18   19 am 
    29   19   20 1  
    30   19   50 2  
    31   20   21 1  
    32   20   51 1  
    33   21   22 1  
    34   24   25 1  
    35   25   26 ar 
    36   25   30 ar 
    37   26   27 ar 
    38   27   28 ar 
    39   28   29 ar 
    40   28   31 1  
    41   29   30 ar 
    42   33   34 1  
    43   34   35 ar 
    44   34   39 ar 
    45   35   36 ar 
    46   36   37 ar 
    47   37   38 ar 
    48   38   39 ar 
    49   42   43 1  
    50   43   44 1  
    51   44   45 1  
    52   45   46 ar 
    53   46   47 ar 
    54   46   48 ar 
    55   51   52 am 
    56   52   53 2  
    57    2   54 1  
    58    3   55 1  
    59    4   56 1  
    60    5   57 1  
    61    7   58 1  
    62    8   59 1  
    63   10   60 1  
    64   11   61 1  
    65   12   62 1  
    66   14   63 1  
    67   15   64 1  
    68   15   65 1  
    69   16   66 1  
    70   16   67 1  
    71   17   68 1  
    72   17   69 1  
    73   20   70 1  
    74   21   71 1  
    75   21   72 1  
    76   22   73 1  
    77   24   74 1  
    78   24   75 1  
    79   26   76 1  
    80   27   77 1  
    81   29   78 1  
    82   30   79 1  
    83   31   80 1  
    84   33   81 1  
    85   33   82 1  
    86   35   83 1  
    87   36   84 1  
    88   37   85 1  
    89   38   86 1  
    90   39   87 1  
    91   41   88 1  
    92   42   89 1  
    93   42   90 1  
    94   43   91 1  
    95   43   92 1  
    96   44   93 1  
    97   44   94 1  
    98   45   95 1  
    99   47   96 1  
   100   47   97 1  
   101   48   98 1  
   102   48   99 1  
   103   51  100 1  
   104   52  101 1  
@<TRIPOS>SUBSTRUCTURE
     1 CTA         1

