### 
### Created by X-TOOL on Fri Nov 18 12:01:07 2016
### 

@<TRIPOS>MOLECULE
1tyr_ligand
   49    49     1     0     0
SMALL
GAST_HUCK


@<TRIPOS>ATOM
      1 C1         21.1250   44.8670   56.3000 C.3       1 REA        -0.0859
      2 C2         21.0640   44.8520   54.7650 C.3       1 REA        -0.0979
      3 C3         21.8290   43.8200   54.1250 C.3       1 REA        -0.0377
      4 C4         21.3650   42.4230   54.4980 C.3       1 REA         0.0374
      5 C5         21.2650   42.2620   55.9990 C.2       1 REA         0.0256
      6 C6         21.1480   43.3550   56.8520 C.2       1 REA        -0.0437
      7 C7         20.8830   43.2370   58.3190 C.2       1 REA        -0.0588
      8 C8         21.8190   42.8930   59.4220 C.2       1 REA        -0.0502
      9 C9         21.6130   42.7170   60.8320 C.2       1 REA        -0.0405
     10 C10        22.7110   42.3640   61.5560 C.2       1 REA        -0.0599
     11 C11        22.7780   42.0890   62.9770 C.2       1 REA        -0.0707
     12 C12        23.9030   41.6130   63.5760 C.2       1 REA        -0.0643
     13 C13        25.1260   41.2590   62.8690 C.2       1 REA        -0.0561
     14 C14        26.1860   40.7930   63.5780 C.2       1 REA        -0.0506
     15 C15        26.9420   41.6530   64.4760 C.2       1 REA         0.0296
     16 C16        19.8900   45.6480   56.8120 C.3       1 REA        -0.1147
     17 C17        22.3920   45.6070   56.7440 C.3       1 REA        -0.1147
     18 C18        21.4330   40.7950   56.4030 C.3       1 REA         0.0277
     19 C19        20.1770   42.8650   61.3760 C.3       1 REA        -0.0264
     20 C20        25.0830   41.2160   61.2950 C.3       1 REA        -0.0316
     21 O1         26.6160   41.8320   65.8480 O.co2     1 REA        -0.5736
     22 O2         28.0260   42.5200   64.5280 O.co2     1 REA        -0.5736
     23 H1         21.4339   45.8222   54.4019 H         1 REA         0.0079
     24 H2         20.0120   44.7265   54.4691 H         1 REA         0.0079
     25 H3         22.8830   43.9302   54.4200 H         1 REA         0.0309
     26 H4         21.7386   43.9406   53.0354 H         1 REA         0.0309
     27 H5         22.0845   41.6893   54.1057 H         1 REA         0.0731
     28 H6         20.3763   42.2421   54.0512 H         1 REA         0.0731
     29 H7         19.8557   43.4311   58.6237 H         1 REA         0.0700
     30 H8         22.8497   42.7480   59.1016 H         1 REA         0.0582
     31 H9         23.6457   42.2786   61.0038 H         1 REA         0.0490
     32 H10        21.8951   42.2700   63.5883 H         1 REA         0.0644
     33 H11        23.8879   41.4882   64.6577 H         1 REA         0.0493
     34 H12        26.4778   39.7492   63.4720 H         1 REA         0.0350
     35 H13        19.9044   45.6768   57.9115 H         1 REA         0.0039
     36 H14        18.9720   45.1474   56.4704 H         1 REA         0.0039
     37 H15        19.9161   46.6747   56.4179 H         1 REA         0.0039
     38 H16        23.2787   45.0627   56.3868 H         1 REA         0.0039
     39 H17        22.4161   45.6665   57.8421 H         1 REA         0.0039
     40 H18        22.3905   46.6227   56.3217 H         1 REA         0.0039
     41 H19        21.3564   40.7048   57.4966 H         1 REA         0.0697
     42 H20        22.4186   40.4345   56.0735 H         1 REA         0.0697
     43 H21        20.6447   40.1916   55.9293 H         1 REA         0.0697
     44 H22        19.5036   43.1602   60.5578 H         1 REA         0.0424
     45 H23        20.1598   43.6354   62.1610 H         1 REA         0.0424
     46 H24        19.8436   41.9050   61.7970 H         1 REA         0.0424
     47 H25        24.1334   41.6448   60.9423 H         1 REA         0.0404
     48 H26        25.1633   40.1732   60.9543 H         1 REA         0.0404
     49 H27        25.9221   41.8000   60.8891 H         1 REA         0.0404
@<TRIPOS>BOND
     1    1    2 1  
     2    1    6 1  
     3    1   16 1  
     4    1   17 1  
     5    2    3 1  
     6    3    4 1  
     7    4    5 1  
     8    5    6 2  
     9    5   18 1  
    10    6    7 1  
    11    7    8 2  
    12    8    9 1  
    13    9   10 2  
    14    9   19 1  
    15   10   11 1  
    16   11   12 2  
    17   12   13 1  
    18   13   14 2  
    19   13   20 1  
    20   14   15 1  
    21   15   21 ar 
    22   15   22 ar 
    23    2   23 1  
    24    2   24 1  
    25    3   25 1  
    26    3   26 1  
    27    4   27 1  
    28    4   28 1  
    29    7   29 1  
    30    8   30 1  
    31   10   31 1  
    32   11   32 1  
    33   12   33 1  
    34   14   34 1  
    35   16   35 1  
    36   16   36 1  
    37   16   37 1  
    38   17   38 1  
    39   17   39 1  
    40   17   40 1  
    41   18   41 1  
    42   18   42 1  
    43   18   43 1  
    44   19   44 1  
    45   19   45 1  
    46   19   46 1  
    47   20   47 1  
    48   20   48 1  
    49   20   49 1  
@<TRIPOS>SUBSTRUCTURE
     1 REA         1

