### 
### Created by X-TOOL on Mon Sep 10 21:12:51 2018
### 

@<TRIPOS>MOLECULE
1u2y_ligand
   25    25     1     0     0
SMALL
GAST_HUCK


@<TRIPOS>ATOM
      1 C1          9.1350   16.4340   42.9910 C.2       1 GOX         0.1322
      2 N1         10.2050   17.2690   42.8140 N.2       1 GOX        -0.2068
      3 C2          8.4950   16.3800   44.3910 C.3       1 GOX         0.1503
      4 N5          8.6150   15.7960   41.8660 N.pl3     1 GOX        -0.2990
      5 O7         10.7640   17.3790   41.6350 O.3       1 GOX        -0.3046
      6 O2          9.3840   16.2620   45.5060 O.3       1 GOX        -0.3713
      7 C3          7.3450   15.3510   44.5020 C.3       1 GOX         0.1233
      8 O3          6.5500   15.7180   45.6290 O.3       1 GOX        -0.3841
      9 C4          6.4930   15.3880   43.2420 C.3       1 GOX         0.1104
     10 O4          5.3840   14.4830   43.3570 O.3       1 GOX        -0.3866
     11 C5          7.4210   14.9360   42.0700 C.3       1 GOX         0.0898
     12 C6          6.6430   14.9140   40.7310 C.3       1 GOX         0.0694
     13 O6          6.0150   16.1700   40.4700 O.3       1 GOX        -0.3927
     14 H1          8.0213   17.3654   44.5114 H         1 GOX         0.0843
     15 H2          9.0395   15.9155   40.9352 H         1 GOX         0.1812
     16 H3         10.1218   17.6932   41.0094 H         1 GOX         0.2523
     17 H4          8.8795   16.2383   46.3107 H         1 GOX         0.2137
     18 H5          7.7552   14.3399   44.6412 H         1 GOX         0.0673
     19 H6          5.8329   15.1021   45.7233 H         1 GOX         0.2103
     20 H7          6.1200   16.4075   43.0647 H         1 GOX         0.0646
     21 H8          4.8637   14.5190   42.5630 H         1 GOX         0.2100
     22 H9          7.7672   13.9170   42.2977 H         1 GOX         0.0603
     23 H10         5.8713   14.1316   40.7788 H         1 GOX         0.0581
     24 H11         7.3440   14.6883   39.9139 H         1 GOX         0.0581
     25 H12         5.5476   16.1236   39.6443 H         1 GOX         0.2095
@<TRIPOS>BOND
     1    1    2 2  
     2    1    3 1  
     3    1    4 1  
     4    2    5 1  
     5    3    6 1  
     6    3    7 1  
     7    4   11 1  
     8    7    8 1  
     9    7    9 1  
    10    9   10 1  
    11    9   11 1  
    12   11   12 1  
    13   12   13 1  
    14    3   14 1  
    15    4   15 1  
    16    5   16 1  
    17    6   17 1  
    18    7   18 1  
    19    8   19 1  
    20    9   20 1  
    21   10   21 1  
    22   11   22 1  
    23   12   23 1  
    24   12   24 1  
    25   13   25 1  
@<TRIPOS>SUBSTRUCTURE
     1 GOX         1

