### 
### Created by X-TOOL on Mon Sep 10 21:12:52 2018
### 

@<TRIPOS>MOLECULE
1u32_ligand
  124   130     1     0     0
SMALL
GAST_HUCK


@<TRIPOS>ATOM
      1 C1         83.7700   52.8440   21.9810 C.2       1 OKA         0.0761
      2 C2         83.5610   52.2030   23.3430 C.3       1 OKA         0.1097
      3 C3         84.8590   52.0830   24.1100 C.3       1 OKA         0.0053
      4 C4         85.5710   53.4210   24.5020 C.3       1 OKA         0.0447
      5 C5         86.8190   53.2420   25.2220 C.3       1 OKA        -0.0270
      6 C6         87.4280   54.5860   25.5940 C.3       1 OKA        -0.0339
      7 C7         86.3590   55.3590   26.4220 C.3       1 OKA         0.0604
      8 C8         85.0690   55.5580   25.7020 C.3       1 OKA         0.1391
      9 C9         83.9830   56.2050   26.4220 C.2       1 OKA        -0.0395
     10 C10        83.3020   57.2820   25.9970 C.2       1 OKA         0.0097
     11 C11        83.6210   57.9060   24.6470 C.3       1 OKA         0.0560
     12 C12        84.3900   56.8980   23.7480 C.3       1 OKA         0.0782
     13 C13        85.0250   57.5520   22.5260 C.3       1 OKA         0.0022
     14 C14        85.7740   56.5370   21.7570 C.2       1 OKA        -0.0907
     15 C15        87.0100   56.5410   21.5600 C.2       1 OKA        -0.0699
     16 C16        87.9070   55.5570   20.8340 C.3       1 OKA         0.0795
     17 C17        88.8770   56.0330   19.7600 C.3       1 OKA        -0.0148
     18 C18        90.1290   55.1080   19.8840 C.3       1 OKA         0.0055
     19 C19        89.7170   54.1470   21.0920 C.3       1 OKA         0.1734
     20 C20        90.8770   53.8220   21.9480 C.3       1 OKA         0.0040
     21 C21        90.4110   52.8570   23.1220 C.3       1 OKA        -0.0187
     22 C22        89.7610   51.6250   22.4510 C.3       1 OKA         0.0933
     23 C23        88.6450   52.0850   21.5600 C.3       1 OKA         0.1258
     24 C24        88.0150   50.8070   20.9140 C.3       1 OKA         0.1212
     25 C25        87.5180   49.8150   22.0560 C.2       1 OKA        -0.0118
     26 C26        88.6160   49.5340   23.0000 C.3       1 OKA         0.1222
     27 C27        89.7660   48.5540   22.6090 C.3       1 OKA         0.0935
     28 C28        89.2200   47.1590   22.2040 C.3       1 OKA        -0.0172
     29 C29        90.3360   46.1540   21.7830 C.3       1 OKA        -0.0146
     30 C30        89.7040   44.7610   21.4890 C.3       1 OKA         0.0671
     31 C31        88.9410   44.1320   22.6620 C.3       1 OKA        -0.0170
     32 C32        88.4810   42.7450   22.1910 C.3       1 OKA        -0.0432
     33 C33        89.6660   41.8690   21.6840 C.3       1 OKA         0.0017
     34 C34        90.5130   42.5810   20.6870 C.3       1 OKA         0.1703
     35 C35        91.8600   41.9510   20.3840 C.3       1 OKA         0.0015
     36 C36        92.5130   42.5570   19.1080 C.3       1 OKA        -0.0461
     37 C37        91.6220   42.6110   17.8940 C.3       1 OKA        -0.0292
     38 C38        90.2690   43.2150   18.2690 C.3       1 OKA         0.0509
     39 C39        89.7530   43.9900   23.9800 C.3       1 OKA        -0.0601
     40 C40        91.0470   46.6510   20.5410 C.3       1 OKA        -0.0600
     41 C41        86.3320   49.4140   22.0740 C.2       1 OKA        -0.1239
     42 C42        84.0330   58.2480   21.6430 C.3       1 OKA        -0.0531
     43 C43        82.1910   57.9360   26.7840 C.3       1 OKA         0.0182
     44 C44        82.9580   50.8030   23.0110 C.3       1 OKA        -0.0312
     45 O1         82.9560   53.9020   21.7250 O.co2     1 OKA        -0.5451
     46 O2         84.5860   52.5170   21.1270 O.co2     1 OKA        -0.5451
     47 O3         82.5480   52.8490   24.0370 O.3       1 OKA        -0.3851
     48 O4         84.5620   54.2110   25.2680 O.3       1 OKA        -0.4173
     49 O5         86.9050   56.6550   26.8210 O.3       1 OKA        -0.4027
     50 O6         85.4000   56.2550   24.4860 O.3       1 OKA        -0.4110
     51 O7         88.7040   54.9060   21.7930 O.3       1 OKA        -0.3362
     52 O8         89.0900   52.9550   20.5240 O.3       1 OKA        -0.3376
     53 O9         89.3070   50.7690   23.4870 O.3       1 OKA        -0.3528
     54 O10        86.9720   51.1450   20.0210 O.3       1 OKA        -0.3738
     55 O11        90.6840   48.3990   23.6060 O.3       1 OKA        -0.3867
     56 O12        90.8130   43.9080   21.0810 O.3       1 OKA        -0.3449
     57 O13        89.7000   42.5900   19.4800 O.3       1 OKA        -0.3486
     58 H1         85.5589   51.5019   23.4916 H         1 OKA         0.0310
     59 H2         84.6474   51.5336   25.0392 H         1 OKA         0.0310
     60 H3         85.8117   53.9665   23.5776 H         1 OKA         0.0579
     61 H4         87.5262   52.6899   24.5856 H         1 OKA         0.0290
     62 H5         86.6262   52.6674   26.1400 H         1 OKA         0.0290
     63 H6         87.6814   55.1503   24.6844 H         1 OKA         0.0278
     64 H7         88.3357   54.4352   26.1968 H         1 OKA         0.0278
     65 H8         86.1484   54.7730   27.3288 H         1 OKA         0.0465
     66 H9         83.6989   55.7815   27.3842 H         1 OKA         0.0430
     67 H10        84.2419   58.8011   24.7998 H         1 OKA         0.0713
     68 H11        82.6824   58.1914   24.1495 H         1 OKA         0.0713
     69 H12        83.6716   56.1417   23.3987 H         1 OKA         0.0659
     70 H13        85.7380   58.3091   22.8844 H         1 OKA         0.0449
     71 H14        85.2027   55.7165   21.3253 H         1 OKA         0.0454
     72 H15        87.5310   57.3988   21.9827 H         1 OKA         0.0475
     73 H16        87.2390   54.8250   20.3566 H         1 OKA         0.0722
     74 H17        89.1566   57.0826   19.9333 H         1 OKA         0.0311
     75 H18        88.4240   55.9341   18.7625 H         1 OKA         0.0311
     76 H19        91.0318   55.6882   20.1255 H         1 OKA         0.0319
     77 H20        90.2967   54.5369   18.9589 H         1 OKA         0.0319
     78 H21        91.2889   54.7480   22.3755 H         1 OKA         0.0318
     79 H22        91.6491   53.3211   21.3456 H         1 OKA         0.0318
     80 H23        89.6799   53.3682   23.7656 H         1 OKA         0.0293
     81 H24        91.2773   52.5475   23.7251 H         1 OKA         0.0293
     82 H25        90.5068   51.0929   21.8422 H         1 OKA         0.0627
     83 H26        87.8917   52.6101   22.1656 H         1 OKA         0.0677
     84 H27        88.7979   50.2947   20.3356 H         1 OKA         0.0820
     85 H28        88.1164   49.0770   23.8669 H         1 OKA         0.0822
     86 H29        90.2821   48.9844   21.7382 H         1 OKA         0.0647
     87 H30        88.5294   47.2874   21.3575 H         1 OKA         0.0296
     88 H31        88.6752   46.7358   23.0608 H         1 OKA         0.0296
     89 H32        91.0631   46.0584   22.6028 H         1 OKA         0.0324
     90 H33        88.9973   44.8674   20.6528 H         1 OKA         0.0602
     91 H34        88.0613   44.7566   22.8763 H         1 OKA         0.0323
     92 H35        87.7587   42.8715   21.3711 H         1 OKA         0.0270
     93 H36        87.9945   42.2292   23.0320 H         1 OKA         0.0270
     94 H37        89.2588   40.9603   21.2167 H         1 OKA         0.0317
     95 H38        90.2922   41.5899   22.5442 H         1 OKA         0.0317
     96 H39        91.7207   40.8704   20.2326 H         1 OKA         0.0317
     97 H40        92.5308   42.1180   21.2397 H         1 OKA         0.0317
     98 H41        93.3947   41.9496   18.8559 H         1 OKA         0.0268
     99 H42        92.8301   43.5837   19.3431 H         1 OKA         0.0268
    100 H43        91.4720   41.5927   17.5059 H         1 OKA         0.0287
    101 H44        92.0969   43.2321   17.1202 H         1 OKA         0.0287
    102 H45        89.5704   43.0682   17.4321 H         1 OKA         0.0561
    103 H46        90.3996   44.2916   18.4531 H         1 OKA         0.0561
    104 H47        90.0822   44.9841   24.3167 H         1 OKA         0.0233
    105 H48        90.6323   43.3534   23.8022 H         1 OKA         0.0233
    106 H49        89.1192   43.5321   24.7537 H         1 OKA         0.0233
    107 H50        91.4951   47.6349   20.7440 H         1 OKA         0.0233
    108 H51        90.3249   46.7402   19.7160 H         1 OKA         0.0233
    109 H52        91.8373   45.9389   20.2612 H         1 OKA         0.0233
    110 H53        85.6417   49.7204   21.2895 H         1 OKA         0.0077
    111 H54        85.9908   48.7589   22.8742 H         1 OKA         0.0077
    112 H55        84.5563   58.6952   20.7850 H         1 OKA         0.0253
    113 H56        83.5243   59.0382   22.2147 H         1 OKA         0.0253
    114 H57        83.2907   57.5212   21.2814 H         1 OKA         0.0253
    115 H58        82.0520   57.4017   27.7355 H         1 OKA         0.0651
    116 H59        81.2581   57.8979   26.2025 H         1 OKA         0.0651
    117 H60        82.4538   58.9846   26.9873 H         1 OKA         0.0651
    118 H61        82.0178   50.9313   22.4547 H         1 OKA         0.0249
    119 H62        82.7595   50.2582   23.9458 H         1 OKA         0.0249
    120 H63        83.6715   50.2323   22.3984 H         1 OKA         0.0249
    121 H64        81.7685   52.8864   23.4953 H         1 OKA         0.2089
    122 H65        87.0539   57.1863   26.0477 H         1 OKA         0.2080
    123 H66        86.2707   51.5696   20.5011 H         1 OKA         0.2138
    124 H67        91.0223   49.2500   23.8586 H         1 OKA         0.2102
@<TRIPOS>BOND
     1    1    2 1  
     2    1   45 ar 
     3    1   46 ar 
     4    2    3 1  
     5    2   44 1  
     6    2   47 1  
     7    3    4 1  
     8    4    5 1  
     9    4   48 1  
    10    5    6 1  
    11    6    7 1  
    12    7    8 1  
    13    7   49 1  
    14    8    9 1  
    15    8   48 1  
    16    8   50 1  
    17    9   10 2  
    18   10   11 1  
    19   10   43 1  
    20   11   12 1  
    21   12   13 1  
    22   12   50 1  
    23   13   14 1  
    24   13   42 1  
    25   14   15 2  
    26   15   16 1  
    27   16   17 1  
    28   16   51 1  
    29   17   18 1  
    30   18   19 1  
    31   19   20 1  
    32   19   51 1  
    33   19   52 1  
    34   20   21 1  
    35   21   22 1  
    36   22   23 1  
    37   22   53 1  
    38   23   24 1  
    39   23   52 1  
    40   24   25 1  
    41   24   54 1  
    42   25   26 1  
    43   25   41 2  
    44   26   27 1  
    45   26   53 1  
    46   27   28 1  
    47   27   55 1  
    48   28   29 1  
    49   29   30 1  
    50   29   40 1  
    51   30   31 1  
    52   30   56 1  
    53   31   32 1  
    54   31   39 1  
    55   32   33 1  
    56   33   34 1  
    57   34   35 1  
    58   34   56 1  
    59   34   57 1  
    60   35   36 1  
    61   36   37 1  
    62   37   38 1  
    63   38   57 1  
    64    3   58 1  
    65    3   59 1  
    66    4   60 1  
    67    5   61 1  
    68    5   62 1  
    69    6   63 1  
    70    6   64 1  
    71    7   65 1  
    72    9   66 1  
    73   11   67 1  
    74   11   68 1  
    75   12   69 1  
    76   13   70 1  
    77   14   71 1  
    78   15   72 1  
    79   16   73 1  
    80   17   74 1  
    81   17   75 1  
    82   18   76 1  
    83   18   77 1  
    84   20   78 1  
    85   20   79 1  
    86   21   80 1  
    87   21   81 1  
    88   22   82 1  
    89   23   83 1  
    90   24   84 1  
    91   26   85 1  
    92   27   86 1  
    93   28   87 1  
    94   28   88 1  
    95   29   89 1  
    96   30   90 1  
    97   31   91 1  
    98   32   92 1  
    99   32   93 1  
   100   33   94 1  
   101   33   95 1  
   102   35   96 1  
   103   35   97 1  
   104   36   98 1  
   105   36   99 1  
   106   37  100 1  
   107   37  101 1  
   108   38  102 1  
   109   38  103 1  
   110   39  104 1  
   111   39  105 1  
   112   39  106 1  
   113   40  107 1  
   114   40  108 1  
   115   40  109 1  
   116   41  110 1  
   117   41  111 1  
   118   42  112 1  
   119   42  113 1  
   120   42  114 1  
   121   43  115 1  
   122   43  116 1  
   123   43  117 1  
   124   44  118 1  
   125   44  119 1  
   126   44  120 1  
   127   47  121 1  
   128   49  122 1  
   129   54  123 1  
   130   55  124 1  
@<TRIPOS>SUBSTRUCTURE
     1 OKA         1

