### 
### Created by X-TOOL on Mon Sep 10 21:12:51 2018
### 

@<TRIPOS>MOLECULE
1u33_ligand
   70    72     1     0     0
SMALL
GAST_HUCK


@<TRIPOS>ATOM
      1 CA1        10.3360   16.8890   44.0860 C.2       1 LM2         0.1322
      2 NA1         9.2880   16.8530   44.8950 N.2       1 LM2        -0.2068
      3 OA7         8.6360   15.7060   44.9990 O.3       1 LM2        -0.3046
      4 CA2        11.1090   18.2140   43.9450 C.3       1 LM2         0.1504
      5 OA2        10.3900   19.2630   44.3750 O.3       1 LM2        -0.3713
      6 CA3        11.6250   18.3380   42.4680 C.3       1 LM2         0.1237
      7 OA3        12.3060   19.4680   42.3240 O.3       1 LM2        -0.3840
      8 CA4        12.4680   17.0690   42.0790 C.3       1 LM2         0.1169
      9 OA4        12.5150   16.9670   40.7580 O.3       1 LM2        -0.3402
     10 CA5        11.8660   15.7440   42.4260 C.3       1 LM2         0.0902
     11 NA5        10.7440   15.7130   43.3830 N.pl3     1 LM2        -0.2990
     12 CA6        12.9780   14.8440   43.0540 C.3       1 LM2         0.0694
     13 OA6        13.4420   15.3890   44.2240 O.3       1 LM2        -0.3927
     14 CB1        13.5910   17.6860   40.1720 C.3       1 LM2         0.1884
     15 CB2        13.2430   17.9250   38.6260 C.3       1 LM2         0.1341
     16 CB3        13.2910   16.6000   37.7800 C.3       1 LM2         0.1144
     17 CB4        14.7350   16.0160   37.9190 C.3       1 LM2         0.1184
     18 CB5        14.9820   15.6980   39.5370 C.3       1 LM2         0.1134
     19 CB6        16.3540   15.1180   39.8180 C.3       1 LM2         0.0730
     20 OB2        11.9500   18.5710   38.5590 O.3       1 LM2        -0.3841
     21 OB3        12.9890   16.9230   36.4000 O.3       1 LM2        -0.3864
     22 OB4        14.8150   14.8200   37.1620 O.3       1 LM2        -0.3401
     23 OB5        14.8860   16.9700   40.2910 O.3       1 LM2        -0.3405
     24 OB6        17.3490   15.9470   39.3210 O.3       1 LM2        -0.3924
     25 CD1        16.0640   14.7590   36.3950 C.3       1 LM2         0.1884
     26 CD2        15.8740   14.7870   34.8250 C.3       1 LM2         0.1341
     27 CD3        15.0460   13.4970   34.4010 C.3       1 LM2         0.1143
     28 CD4        15.8670   12.2280   34.7950 C.3       1 LM2         0.1150
     29 CD5        16.0960   12.2360   36.4160 C.3       1 LM2         0.1133
     30 CD6        16.9370   11.0050   36.8650 C.3       1 LM2         0.0730
     31 OD2        15.1700   16.0020   34.4990 O.3       1 LM2        -0.3841
     32 OD3        14.8680   13.4950   33.0070 O.3       1 LM2        -0.3864
     33 OD4        15.1380   11.0070   34.4260 O.3       1 LM2        -0.3745
     34 OD5        16.8100   13.5050   36.7820 O.3       1 LM2        -0.3405
     35 OD6        18.2470   11.0200   36.2860 O.3       1 LM2        -0.3924
     36 CD7        15.8470   10.1330   33.5070 C.3       1 LM2         0.0370
     37 H1          7.9109   15.8089   45.6041 H         1 LM2         0.2523
     38 H2         11.9949   18.1548   44.5944 H         1 LM2         0.0843
     39 H3          9.5914   19.3287   43.8646 H         1 LM2         0.2137
     40 H4         10.7533   18.3810   41.7984 H         1 LM2         0.0674
     41 H5         11.7403   20.2049   42.5229 H         1 LM2         0.2103
     42 H6         13.4713   17.1623   42.5202 H         1 LM2         0.0650
     43 H7         11.5137   15.2939   41.4862 H         1 LM2         0.0603
     44 H8         10.2450   14.8272   43.5479 H         1 LM2         0.1812
     45 H9         13.8123   14.7524   42.3430 H         1 LM2         0.0581
     46 H10        12.5613   13.8472   43.2608 H         1 LM2         0.0581
     47 H11        12.7247   15.4669   44.8421 H         1 LM2         0.2095
     48 H12        13.6840   18.6581   40.6783 H         1 LM2         0.0938
     49 H13        13.9942   18.6100   38.2060 H         1 LM2         0.0671
     50 H14        12.5556   15.8752   38.1594 H         1 LM2         0.0648
     51 H15        15.4804   16.7389   37.5561 H         1 LM2         0.0651
     52 H16        14.2118   14.9936   39.8843 H         1 LM2         0.0647
     53 H17        16.4337   14.1311   39.3387 H         1 LM2         0.0584
     54 H18        16.4843   15.0094   40.9048 H         1 LM2         0.0584
     55 H19        11.2850   17.9817   38.8953 H         1 LM2         0.2101
     56 H20        12.1083   17.2749   36.3437 H         1 LM2         0.2100
     57 H21        17.2852   16.7997   39.7349 H         1 LM2         0.2095
     58 H22        16.6711   15.6331   36.6731 H         1 LM2         0.0938
     59 H23        16.8515   14.7784   34.3205 H         1 LM2         0.0671
     60 H24        14.0694   13.4917   34.9071 H         1 LM2         0.0648
     61 H25        16.8389   12.2446   34.2801 H         1 LM2         0.0649
     62 H26        15.1195   12.2052   36.9214 H         1 LM2         0.0647
     63 H27        16.4194   10.0862   36.5523 H         1 LM2         0.0584
     64 H28        17.0313   11.0180   37.9609 H         1 LM2         0.0584
     65 H29        15.0188   16.0373   33.5617 H         1 LM2         0.2101
     66 H30        14.3980   12.7104   32.7500 H         1 LM2         0.2100
     67 H31        18.7023   11.8089   36.5560 H         1 LM2         0.2095
     68 H32        15.2279    9.2502   33.2892 H         1 LM2         0.0524
     69 H33        16.7950    9.8123   33.9636 H         1 LM2         0.0524
     70 H34        16.0548   10.6747   32.5724 H         1 LM2         0.0524
@<TRIPOS>BOND
     1    1    2 2  
     2    1    4 1  
     3    1   11 1  
     4    2    3 1  
     5    4    5 1  
     6    4    6 1  
     7    6    7 1  
     8    6    8 1  
     9    8    9 1  
    10    8   10 1  
    11    9   14 1  
    12   10   11 1  
    13   10   12 1  
    14   12   13 1  
    15   14   15 1  
    16   14   23 1  
    17   15   16 1  
    18   15   20 1  
    19   16   17 1  
    20   16   21 1  
    21   17   18 1  
    22   17   22 1  
    23   18   19 1  
    24   18   23 1  
    25   19   24 1  
    26   22   25 1  
    27   25   26 1  
    28   25   34 1  
    29   26   27 1  
    30   26   31 1  
    31   27   28 1  
    32   27   32 1  
    33   28   29 1  
    34   28   33 1  
    35   29   30 1  
    36   29   34 1  
    37   30   35 1  
    38   33   36 1  
    39    3   37 1  
    40    4   38 1  
    41    5   39 1  
    42    6   40 1  
    43    7   41 1  
    44    8   42 1  
    45   10   43 1  
    46   11   44 1  
    47   12   45 1  
    48   12   46 1  
    49   13   47 1  
    50   14   48 1  
    51   15   49 1  
    52   16   50 1  
    53   17   51 1  
    54   18   52 1  
    55   19   53 1  
    56   19   54 1  
    57   20   55 1  
    58   21   56 1  
    59   24   57 1  
    60   25   58 1  
    61   26   59 1  
    62   27   60 1  
    63   28   61 1  
    64   29   62 1  
    65   30   63 1  
    66   30   64 1  
    67   31   65 1  
    68   32   66 1  
    69   35   67 1  
    70   36   68 1  
    71   36   69 1  
    72   36   70 1  
@<TRIPOS>SUBSTRUCTURE
     1 LM2         1

