### 
### Created by X-TOOL on Mon Sep 10 21:12:53 2018
### 

@<TRIPOS>MOLECULE
1u3q_ligand
   27    29     1     0     0
SMALL
GAST_HUCK


@<TRIPOS>ATOM
      1 C1         19.9970   -4.2710   17.3730 C.ar      1 272         0.0823
      2 C2         20.4640   -4.2460   16.0270 C.ar      1 272         0.0039
      3 C3         19.5010   -4.1030   14.9980 C.ar      1 272         0.1480
      4 C4         18.0940   -3.9840   15.2330 C.ar      1 272         0.0193
      5 C5         17.6060   -4.0080   16.6170 C.ar      1 272        -0.0662
      6 C6         18.5750   -4.1540   17.6880 C.ar      1 272        -0.0394
      7 O10        19.7190   -4.0450   13.6830 O.3       1 272        -0.1770
      8 N11        18.5560   -3.8930   13.1000 N.2       1 272        -0.1478
      9 C12        17.4520   -3.8540   13.9310 C.2       1 272         0.0616
     10 C13        16.0100   -3.6420   13.4810 C.ar      1 272         0.0118
     11 C14        15.7170   -3.3960   12.0780 C.ar      1 272         0.0906
     12 C15        14.3850   -3.1850   11.6060 C.ar      1 272        -0.0035
     13 C16        13.3140   -3.2140   12.5310 C.ar      1 272         0.0806
     14 C17        13.5740   -3.4580   13.9290 C.ar      1 272        -0.0426
     15 C18        14.9240   -3.6720   14.4110 C.ar      1 272        -0.0691
     16 O22        12.1580   -3.0310   12.1340 O.3       1 272        -0.3349
     17 O23        16.5820   -3.3550   11.2110 O.3       1 272        -0.3331
     18 O24        20.8390   -4.3920   18.2710 O.3       1 272        -0.3353
     19 H1         21.5200   -4.3334   15.7983 H         1 272         0.0479
     20 H2         16.5477   -3.9189   16.8341 H         1 272         0.0582
     21 H3         18.2441   -4.1762   18.7200 H         1 272         0.0494
     22 H4         14.1972   -3.0051   10.5537 H         1 272         0.0465
     23 H5         12.7471   -3.4816   14.6295 H         1 272         0.0460
     24 H6         15.1083   -3.8526   15.4638 H         1 272         0.0566
     25 H7         12.1660   -2.8863   11.1951 H         1 272         0.2486
     26 H8         17.4327   -3.5041   11.6067 H         1 272         0.2495
     27 H9         20.7999   -3.6355   18.8442 H         1 272         0.2480
@<TRIPOS>BOND
     1    1    2 ar 
     2    1    6 ar 
     3    1   18 1  
     4    2    3 ar 
     5    3    4 ar 
     6    3    7 1  
     7    4    5 ar 
     8    4    9 1  
     9    5    6 ar 
    10    7    8 1  
    11    8    9 2  
    12    9   10 1  
    13   10   11 ar 
    14   10   15 ar 
    15   11   12 ar 
    16   11   17 1  
    17   12   13 ar 
    18   13   14 ar 
    19   13   16 1  
    20   14   15 ar 
    21    2   19 1  
    22    5   20 1  
    23    6   21 1  
    24   12   22 1  
    25   14   23 1  
    26   15   24 1  
    27   16   25 1  
    28   17   26 1  
    29   18   27 1  
@<TRIPOS>SUBSTRUCTURE
     1 272         1

