### 
### Created by X-TOOL on Mon Sep 10 21:12:53 2018
### 

@<TRIPOS>MOLECULE
1u3r_ligand
   32    35     1     0     0
SMALL
GAST_HUCK


@<TRIPOS>ATOM
      1 C1         25.3150   36.0370   41.3650 C.ar      1 338         0.0789
      2 C2         26.6330   35.4910   41.5330 C.ar      1 338        -0.0001
      3 C3         27.5430   35.6270   40.4440 C.ar      1 338         0.1351
      4 C4         27.1620   36.2700   39.2500 C.ar      1 338         0.0400
      5 C5         25.8540   36.8170   39.0640 C.ar      1 338        -0.0627
      6 C6         24.9250   36.6940   40.1460 C.ar      1 338        -0.0428
      7 O10        28.8300   35.2130   40.3600 O.3       1 338        -0.2277
      8 C11        29.2550   35.5980   39.1140 C.2       1 338         0.1961
      9 N12        28.2490   36.2520   38.3910 N.2       1 338        -0.2955
     10 C13        30.5760   35.3850   38.6210 C.ar      1 338         0.0457
     11 C15        31.2050   36.0730   37.4430 C.ar      1 338        -0.0097
     12 C16        32.6220   35.7430   37.0830 C.ar      1 338         0.0226
     13 C17        33.3370   34.7850   37.8630 C.ar      1 338        -0.0482
     14 C18        32.7280   34.1320   38.9810 C.ar      1 338        -0.0567
     15 C19        31.3850   34.4320   39.3440 C.ar      1 338        -0.0450
     16 C23        30.5470   37.0530   36.6130 C.ar      1 338        -0.0663
     17 C24        31.1960   37.6870   35.5020 C.ar      1 338        -0.0732
     18 C25        32.5520   37.3560   35.1810 C.ar      1 338        -0.0328
     19 C26        33.2740   36.3930   35.9570 C.ar      1 338         0.1029
     20 O30        24.3980   35.9380   42.3820 O.3       1 338        -0.3374
     21 O31        34.5880   36.1210   35.5990 O.3       1 338        -0.3271
     22 H1         26.9243   34.9950   42.4518 H         1 338         0.0473
     23 H2         25.5762   37.3068   38.1377 H         1 338         0.0546
     24 H3         23.9238   37.0974   40.0465 H         1 338         0.0483
     25 H4         34.3622   34.5474   37.6031 H         1 338         0.0675
     26 H5         33.2922   33.4053   39.5543 H         1 338         0.0605
     27 H6         30.9516   33.9244   40.1981 H         1 338         0.0674
     28 H7         29.5210   37.3208   36.8381 H         1 338         0.0495
     29 H8         30.6603   38.4165   34.9055 H         1 338         0.0592
     30 H9         33.0373   37.8399   34.3411 H         1 338         0.0503
     31 H10        24.7911   35.4842   43.1182 H         1 338         0.2470
     32 H11        35.1015   36.9184   35.6537 H         1 338         0.2521
@<TRIPOS>BOND
     1    1    2 ar 
     2    1    6 ar 
     3    1   20 1  
     4    2    3 ar 
     5    3    4 ar 
     6    3    7 1  
     7    4    5 ar 
     8    4    9 1  
     9    5    6 ar 
    10    7    8 1  
    11    8    9 2  
    12    8   10 1  
    13   10   11 ar 
    14   10   15 ar 
    15   11   12 ar 
    16   11   16 ar 
    17   12   13 ar 
    18   12   19 ar 
    19   13   14 ar 
    20   14   15 ar 
    21   16   17 ar 
    22   17   18 ar 
    23   18   19 ar 
    24   19   21 1  
    25    2   22 1  
    26    5   23 1  
    27    6   24 1  
    28   13   25 1  
    29   14   26 1  
    30   15   27 1  
    31   16   28 1  
    32   17   29 1  
    33   18   30 1  
    34   20   31 1  
    35   21   32 1  
@<TRIPOS>SUBSTRUCTURE
     1 338         1

