### 
### Created by X-TOOL on Mon Sep 10 21:12:53 2018
### 

@<TRIPOS>MOLECULE
1u3s_ligand
   32    35     1     0     0
SMALL
GAST_HUCK


@<TRIPOS>ATOM
      1 C1         28.5560   36.9250   37.8410 C.ar      1 797        -0.0116
      2 C2         28.8270   36.3570   39.1400 C.ar      1 797        -0.0513
      3 C3         27.7760   36.1960   40.0930 C.ar      1 797        -0.0250
      4 C4         26.3940   36.6220   39.7330 C.ar      1 797        -0.0288
      5 C5         26.1350   37.1800   38.4500 C.ar      1 797        -0.0597
      6 C6         27.2100   37.3290   37.5200 C.ar      1 797        -0.0575
      7 C10        28.0480   35.6400   41.3790 C.ar      1 797        -0.0565
      8 C11        26.9740   35.4930   42.3120 C.ar      1 797        -0.0278
      9 C12        25.6430   35.9000   41.9620 C.ar      1 797         0.0889
     10 C13        25.3440   36.4620   40.6810 C.ar      1 797        -0.0293
     11 O17        24.6310   35.7380   42.8950 O.3       1 797        -0.3323
     12 C18        29.6560   37.1110   36.8170 C.2       1 797         0.0720
     13 C19        31.0570   36.7560   36.8020 C.ar      1 797         0.0227
     14 C20        31.6060   37.1910   35.5520 C.ar      1 797         0.1510
     15 O21        30.6050   37.7710   34.8600 O.3       1 797        -0.1703
     16 N22        29.5120   37.7190   35.5850 N.2       1 797        -0.1355
     17 C23        31.9610   36.0910   37.7340 C.ar      1 797        -0.0657
     18 C24        33.3440   35.9000   37.3790 C.ar      1 797        -0.0392
     19 C25        33.8320   36.3630   36.1040 C.ar      1 797         0.0825
     20 C26        32.9710   37.0080   35.1860 C.ar      1 797         0.0046
     21 O30        35.1640   36.1880   35.7540 O.3       1 797        -0.3353
     22 H1         29.8353   36.0506   39.3938 H         1 797         0.0611
     23 H2         25.1316   37.4892   38.1804 H         1 797         0.0591
     24 H3         27.0074   37.7581   36.5454 H         1 797         0.0609
     25 H4         29.0534   35.3338   41.6446 H         1 797         0.0616
     26 H5         27.1669   35.0707   43.2915 H         1 797         0.0589
     27 H6         24.3317   36.7620   40.4354 H         1 797         0.0499
     28 H7         24.9902   35.3555   43.6869 H         1 797         0.2488
     29 H8         31.5928   35.7413   38.6917 H         1 797         0.0581
     30 H9         34.0180   35.4079   38.0709 H         1 797         0.0496
     31 H10        33.3403   37.3546   34.2276 H         1 797         0.0481
     32 H11        35.5640   37.0359   35.6007 H         1 797         0.2480
@<TRIPOS>BOND
     1    1    2 ar 
     2    1    6 ar 
     3    1   12 1  
     4    2    3 ar 
     5    3    4 ar 
     6    3    7 ar 
     7    4    5 ar 
     8    4   10 ar 
     9    5    6 ar 
    10    7    8 ar 
    11    8    9 ar 
    12    9   10 ar 
    13    9   11 1  
    14   12   13 1  
    15   12   16 2  
    16   13   14 ar 
    17   13   17 ar 
    18   14   15 1  
    19   14   20 ar 
    20   15   16 1  
    21   17   18 ar 
    22   18   19 ar 
    23   19   20 ar 
    24   19   21 1  
    25    2   22 1  
    26    5   23 1  
    27    6   24 1  
    28    7   25 1  
    29    8   26 1  
    30   10   27 1  
    31   11   28 1  
    32   17   29 1  
    33   18   30 1  
    34   20   31 1  
    35   21   32 1  
@<TRIPOS>SUBSTRUCTURE
     1 797         1

