### 
### Created by X-TOOL on Mon Sep 10 21:12:52 2018
### 

@<TRIPOS>MOLECULE
1u59_ligand
   62    69     1     0     0
SMALL
GAST_HUCK


@<TRIPOS>ATOM
      1 C1         14.9460    2.1030   53.3350 C.ar      1 STU        -0.0696
      2 C2         15.1960    1.2830   52.1980 C.ar      1 STU        -0.0759
      3 C3         14.2640    1.2580   51.0790 C.ar      1 STU        -0.0739
      4 C4         13.0810    2.0490   51.0900 C.ar      1 STU        -0.0408
      5 C5         12.7910    2.9110   52.2610 C.ar      1 STU         0.0695
      6 N6         11.7100    3.8090   52.5710 N.pl3     1 STU        -0.2292
      7 C7         11.9810    4.3510   53.8330 C.ar      1 STU         0.0978
      8 C8         11.1950    5.3250   54.6270 C.ar      1 STU         0.0952
      9 N9          9.9760    5.9330   54.3140 N.pl3     1 STU        -0.2376
     10 C10         9.6460    6.7910   55.3940 C.ar      1 STU         0.0681
     11 C11         8.4340    7.6600   55.5150 C.ar      1 STU        -0.0404
     12 C12         8.3910    8.4240   56.7300 C.ar      1 STU        -0.0732
     13 C13         9.4080    8.3620   57.7380 C.ar      1 STU        -0.0750
     14 C14        10.5770    7.5170   57.6210 C.ar      1 STU        -0.0685
     15 C15        10.6790    6.7130   56.3930 C.ar      1 STU        -0.0072
     16 C16        11.6520    5.7800   55.9050 C.ar      1 STU        -0.0018
     17 C17        12.9240    5.2440   56.4070 C.ar      1 STU         0.0320
     18 C18        13.6680    5.5040   57.6540 C.2       1 STU         0.1871
     19 N19        14.7940    4.7350   57.6030 N.am      1 STU        -0.2790
     20 C20        14.9220    3.9410   56.4180 C.3       1 STU         0.0603
     21 C21        13.6730    4.2960   55.6400 C.ar      1 STU        -0.0168
     22 C22        13.2150    3.8430   54.3560 C.ar      1 STU         0.0011
     23 C23        13.7300    2.9310   53.3740 C.ar      1 STU        -0.0075
     24 C24        10.4830    4.1680   51.7400 C.3       1 STU         0.2020
     25 C25        10.8130    5.4580   50.7940 C.3       1 STU         0.1556
     26 C26         9.5820    6.4060   50.5740 C.3       1 STU         0.0141
     27 C27         9.1140    6.8570   51.9850 C.3       1 STU         0.0455
     28 C28         9.1070    5.7860   53.1290 C.3       1 STU         0.1668
     29 O29         9.3440    4.4400   52.6750 O.3       1 STU        -0.3149
     30 O30        13.3300    6.2860   58.5780 O.2       1 STU        -0.3964
     31 N31        10.0190    7.5100   49.6830 N.4       1 STU         0.2291
     32 C32         9.8970    7.1980   48.2210 C.3       1 STU        -0.0445
     33 O33        11.8280    6.2980   51.4740 O.3       1 STU        -0.3686
     34 C34        13.1780    6.2910   50.9420 C.3       1 STU         0.0373
     35 C35         9.8400    3.0430   50.8720 C.3       1 STU        -0.0059
     36 H1         15.6446    2.1172   54.1638 H         1 STU         0.0566
     37 H2         16.0898    0.6706   52.1649 H         1 STU         0.0516
     38 H3         14.4750    0.6264   50.2236 H         1 STU         0.0561
     39 H4         12.3975    2.0215   50.2491 H         1 STU         0.0538
     40 H5          7.6610    7.7083   54.7566 H         1 STU         0.0539
     41 H6          7.5452    9.0820   56.8934 H         1 STU         0.0568
     42 H7          9.2968    8.9741   58.6257 H         1 STU         0.0516
     43 H8         11.3351    7.4785   58.3948 H         1 STU         0.0576
     44 H9         15.4755    4.7265   58.3347 H         1 STU         0.1863
     45 H10        14.9462    2.8683   56.6605 H         1 STU         0.0679
     46 H11        15.8286    4.2106   55.8564 H         1 STU         0.0679
     47 H12        11.1877    5.1039   49.8223 H         1 STU         0.0710
     48 H13         8.7619    5.8609   50.0838 H         1 STU         0.0880
     49 H14         8.0864    7.2362   51.8843 H         1 STU         0.0372
     50 H15         9.7769    7.6745   52.3049 H         1 STU         0.0372
     51 H16         8.0766    5.8191   53.5126 H         1 STU         0.0933
     52 H17        10.9851    7.7159   49.8837 H         1 STU         0.2014
     53 H18         9.4542    8.3208   49.8823 H         1 STU         0.2014
     54 H19        10.2388    8.0618   47.6320 H         1 STU         0.0777
     55 H20         8.8461    6.9818   47.9786 H         1 STU         0.0777
     56 H21        10.5167    6.3217   47.9801 H         1 STU         0.0777
     57 H22        13.8133    6.9560   51.5455 H         1 STU         0.0524
     58 H23        13.1634    6.6438   49.9002 H         1 STU         0.0524
     59 H24        13.5807    5.2680   50.9771 H         1 STU         0.0524
     60 H25         8.9708    3.4476   50.3328 H         1 STU         0.0284
     61 H26         9.5160    2.2176   51.5229 H         1 STU         0.0284
     62 H27        10.5796    2.6704   50.1480 H         1 STU         0.0284
@<TRIPOS>BOND
     1    1    2 ar 
     2    1   23 ar 
     3    2    3 ar 
     4    3    4 ar 
     5    4    5 ar 
     6    5    6 1  
     7    5   23 ar 
     8    6    7 1  
     9    6   24 1  
    10    7    8 ar 
    11    7   22 ar 
    12    8    9 1  
    13    8   16 ar 
    14    9   10 1  
    15    9   28 1  
    16   10   11 ar 
    17   10   15 ar 
    18   11   12 ar 
    19   12   13 ar 
    20   13   14 ar 
    21   14   15 ar 
    22   15   16 1  
    23   16   17 ar 
    24   17   18 1  
    25   17   21 ar 
    26   18   19 am 
    27   18   30 2  
    28   19   20 1  
    29   20   21 1  
    30   21   22 ar 
    31   22   23 1  
    32   24   25 1  
    33   24   29 1  
    34   24   35 1  
    35   25   26 1  
    36   25   33 1  
    37   26   27 1  
    38   26   31 1  
    39   27   28 1  
    40   28   29 1  
    41   31   32 1  
    42   33   34 1  
    43    1   36 1  
    44    2   37 1  
    45    3   38 1  
    46    4   39 1  
    47   11   40 1  
    48   12   41 1  
    49   13   42 1  
    50   14   43 1  
    51   19   44 1  
    52   20   45 1  
    53   20   46 1  
    54   25   47 1  
    55   26   48 1  
    56   27   49 1  
    57   27   50 1  
    58   28   51 1  
    59   31   52 1  
    60   31   53 1  
    61   32   54 1  
    62   32   55 1  
    63   32   56 1  
    64   34   57 1  
    65   34   58 1  
    66   34   59 1  
    67   35   60 1  
    68   35   61 1  
    69   35   62 1  
@<TRIPOS>SUBSTRUCTURE
     1 STU         1

