### 
### Created by X-TOOL on Mon Sep 10 21:12:52 2018
### 

@<TRIPOS>MOLECULE
1u65_ligand
   82    88     1     0     0
SMALL
GAST_HUCK


@<TRIPOS>ATOM
      1 N1        -17.1880  113.1980   39.6920 N.ar      1 CP0        -0.3080
      2 N4        -14.7920  114.6650   41.9130 N.am      1 CP0        -0.1850
      3 O1        -22.3930  109.6920   38.4690 O.2       1 CP0        -0.3719
      4 O2        -22.3400  110.7420   40.4830 O.3       1 CP0        -0.1986
      5 O18       -13.1470  115.6670   43.3350 O.2       1 CP0        -0.3515
      6 O19       -10.6340  116.6170   39.7580 O.3       1 CP0        -0.2573
      7 O22       -10.2530  116.5940   37.5360 O.2       1 CP0        -0.3493
      8 O23       -12.0750  114.3160   37.6060 O.3       1 CP0        -0.4454
      9 C13       -18.4570  112.5880   39.9820 C.ar      1 CP0         0.0266
     10 C10       -21.0510  111.3550   40.4030 C.ar      1 CP0         0.1262
     11 C14       -14.5250  114.5560   39.4770 C.2       1 CP0        -0.0394
     12 C6        -16.8580  113.6310   42.1470 C.ar      1 CP0         0.0257
     13 C8        -19.0140  112.4670   41.4010 C.ar      1 CP0        -0.0045
     14 C7        -18.1540  113.0190   42.4880 C.ar      1 CP0        -0.0149
     15 C37       -22.9990  109.9900   39.4260 C.2       1 CP0         0.3472
     16 C3        -15.2680  114.2870   40.5960 C.2       1 CP0         0.1052
     17 C9        -20.3510  111.8210   41.5400 C.ar      1 CP0        -0.0201
     18 C12       -19.1750  112.0970   38.7460 C.ar      1 CP0        -0.0469
     19 C11       -20.4190  111.5130   39.0130 C.ar      1 CP0        -0.0216
     20 C2        -16.5110  113.6550   40.7390 C.ar      1 CP0         0.0768
     21 C16       -12.7150  115.6460   40.8750 C.2       1 CP0         0.1298
     22 C15       -13.2220  115.2500   39.6060 C.2       1 CP0        -0.0135
     23 C23       -13.4830  115.3720   42.1550 C.2       1 CP0         0.2989
     24 C17       -11.3470  116.3710   41.0370 C.3       1 CP0         0.1588
     25 C5        -15.7620  114.2810   42.9830 C.3       1 CP0         0.1004
     26 C21       -11.0060  116.2960   38.4640 C.2       1 CP0         0.2258
     27 C28       -13.3480  116.1900   37.2330 C.3       1 CP0        -0.0615
     28 C20       -12.4080  115.5560   38.2690 C.3       1 CP0         0.1148
     29 C31       -18.6660  112.9340   43.9550 C.3       1 CP0        -0.0174
     30 C32       -19.4490  114.1850   44.5460 C.3       1 CP0        -0.0545
     31 C33       -13.8850  117.4950   37.5520 C.3       1 CP0        -0.0754
     32 N2        -24.3080  109.6750   39.6580 N.am      1 CP0        -0.2448
     33 N3        -25.9180  105.8270   38.9850 N.4       1 CP0         0.2375
     34 C25       -24.4430  107.3940   40.2980 C.3       1 CP0         0.0108
     35 C22       -25.7120  109.8060   39.1260 C.3       1 CP0         0.0412
     36 C24       -25.7680  107.2530   39.5760 C.3       1 CP0        -0.0172
     37 C26       -24.2460  108.8320   40.8410 C.3       1 CP0         0.0412
     38 C29       -27.0820  105.7300   37.9090 C.3       1 CP0        -0.0316
     39 C34       -26.8590  104.4570   37.1480 C.3       1 CP0        -0.0123
     40 C35       -26.2050  104.8090   40.0480 C.3       1 CP0        -0.0316
     41 C27       -26.3350  103.3520   39.5280 C.3       1 CP0        -0.0123
     42 C30       -27.0490  103.2300   38.0940 C.3       1 CP0        -0.0434
     43 C36       -25.9180  108.3650   38.4450 C.3       1 CP0         0.0108
     44 H1        -11.5905  114.5036   36.8106 H         1 CP0         0.1855
     45 H2        -14.8910  114.2605   38.4948 H         1 CP0         0.0378
     46 H3        -20.7913  111.7073   42.5240 H         1 CP0         0.0526
     47 H4        -18.7652  112.1885   37.7466 H         1 CP0         0.0616
     48 H5        -20.9840  111.1407   38.1661 H         1 CP0         0.0610
     49 H6        -11.5260  117.3407   41.5244 H         1 CP0         0.1021
     50 H7        -10.7022  115.7519   41.6780 H         1 CP0         0.1021
     51 H8        -16.1350  115.1610   43.5274 H         1 CP0         0.0778
     52 H9        -15.3194  113.5695   43.6956 H         1 CP0         0.0778
     53 H10       -14.1978  115.5059   37.0920 H         1 CP0         0.0124
     54 H11       -12.7902  116.2813   36.2893 H         1 CP0         0.0124
     55 H12       -17.7899  112.7631   44.5978 H         1 CP0         0.0438
     56 H13       -19.3405  112.0673   44.0163 H         1 CP0         0.0438
     57 H14       -19.7444  113.9753   45.5846 H         1 CP0         0.0254
     58 H15       -20.3475  114.3747   43.9405 H         1 CP0         0.0254
     59 H16       -18.7969  115.0705   44.5219 H         1 CP0         0.0254
     60 H17       -14.5378  117.8329   36.7336 H         1 CP0         0.0217
     61 H18       -13.0590  118.2099   37.6811 H         1 CP0         0.0217
     62 H19       -14.4666  117.4345   38.4837 H         1 CP0         0.0217
     63 H20       -25.0471  105.5889   38.5368 H         1 CP0         0.2036
     64 H21       -23.6272  107.1608   39.5979 H         1 CP0         0.0339
     65 H22       -24.4170  106.6867   41.1400 H         1 CP0         0.0339
     66 H23       -25.7898  110.6169   38.3868 H         1 CP0         0.0524
     67 H24       -26.4365  109.9772   39.9358 H         1 CP0         0.0524
     68 H25       -26.5742  107.4039   40.3090 H         1 CP0         0.0852
     69 H26       -25.0463  109.0942   41.5486 H         1 CP0         0.0524
     70 H27       -23.2699  108.9301   41.3386 H         1 CP0         0.0524
     71 H28       -27.0407  106.5919   37.2268 H         1 CP0         0.0814
     72 H29       -28.0608  105.7057   38.4103 H         1 CP0         0.0814
     73 H30       -25.8366  104.4493   36.7422 H         1 CP0         0.0317
     74 H31       -27.5821  104.3952   36.3214 H         1 CP0         0.0317
     75 H32       -27.1498  105.0834   40.5400 H         1 CP0         0.0814
     76 H33       -25.3867  104.8396   40.7825 H         1 CP0         0.0814
     77 H34       -26.9235  102.7759   40.2572 H         1 CP0         0.0317
     78 H35       -25.3257  102.9217   39.4493 H         1 CP0         0.0317
     79 H36       -26.6422  102.3431   37.5862 H         1 CP0         0.0269
     80 H37       -28.1276  103.0940   38.2619 H         1 CP0         0.0269
     81 H38       -25.1568  108.2090   37.6664 H         1 CP0         0.0339
     82 H39       -26.9201  108.3056   37.9953 H         1 CP0         0.0339
@<TRIPOS>BOND
     1    9    1 ar 
     2    1   20 ar 
     3   16    2 1  
     4    2   23 am 
     5   25    2 1  
     6   15    3 2  
     7    4   10 1  
     8   15    4 1  
     9   23    5 2  
    10   24    6 1  
    11   26    6 1  
    12   26    7 2  
    13   28    8 1  
    14   13    9 ar 
    15   18    9 ar 
    16   10   17 ar 
    17   10   19 ar 
    18   16   11 2  
    19   11   22 1  
    20   14   12 ar 
    21   12   20 ar 
    22   12   25 1  
    23   13   14 ar 
    24   17   13 ar 
    25   14   29 1  
    26   32   15 am 
    27   20   16 1  
    28   19   18 ar 
    29   22   21 2  
    30   23   21 1  
    31   21   24 1  
    32   22   28 1  
    33   28   26 1  
    34   28   27 1  
    35   27   31 1  
    36   29   30 1  
    37   32   35 1  
    38   37   32 1  
    39   36   33 1  
    40   33   38 1  
    41   33   40 1  
    42   34   36 1  
    43   34   37 1  
    44   35   43 1  
    45   36   43 1  
    46   38   39 1  
    47   39   42 1  
    48   40   41 1  
    49   41   42 1  
    50    8   44 1  
    51   11   45 1  
    52   17   46 1  
    53   18   47 1  
    54   19   48 1  
    55   24   49 1  
    56   24   50 1  
    57   25   51 1  
    58   25   52 1  
    59   27   53 1  
    60   27   54 1  
    61   29   55 1  
    62   29   56 1  
    63   30   57 1  
    64   30   58 1  
    65   30   59 1  
    66   31   60 1  
    67   31   61 1  
    68   31   62 1  
    69   33   63 1  
    70   34   64 1  
    71   34   65 1  
    72   35   66 1  
    73   35   67 1  
    74   36   68 1  
    75   37   69 1  
    76   37   70 1  
    77   38   71 1  
    78   38   72 1  
    79   39   73 1  
    80   39   74 1  
    81   40   75 1  
    82   40   76 1  
    83   41   77 1  
    84   41   78 1  
    85   42   79 1  
    86   42   80 1  
    87   43   81 1  
    88   43   82 1  
@<TRIPOS>SUBSTRUCTURE
     1 CP0         1

