### 
### Created by X-TOOL on Mon Sep 10 21:12:52 2018
### 

@<TRIPOS>MOLECULE
1u6q_ligand
   41    44     1     0     0
SMALL
GAST_HUCK


@<TRIPOS>ATOM
      1 C1         23.0250   15.7430   33.2780 C.ar      1 745        -0.0368
      2 C2         21.7010   15.7210   32.7100 C.ar      1 745        -0.0545
      3 C3         20.7990   16.7990   32.9850 C.ar      1 745        -0.0259
      4 C4         21.2670   17.9470   33.7650 C.ar      1 745        -0.0222
      5 C5         22.6430   17.9910   34.2100 C.ar      1 745        -0.0567
      6 C6         23.5350   16.9180   33.9280 C.ar      1 745        -0.0562
      7 C10        19.4440   16.7860   32.5130 C.ar      1 745        -0.0578
      8 C11        18.5540   17.8310   32.8520 C.ar      1 745        -0.0585
      9 C12        18.9810   18.9290   33.6570 C.ar      1 745         0.0243
     10 C13        20.3580   18.9930   34.0530 C.ar      1 745        -0.0515
     11 C17        18.0710   20.0100   34.0050 C.cat     1 745         0.2344
     12 N18        16.7930   19.7920   33.9730 N.pl3     1 745        -0.2724
     13 N19        18.4780   21.2580   34.2300 N.pl3     1 745        -0.2724
     14 C23        23.9560   14.6350   33.4210 C.3       1 745         0.0076
     15 C24        24.8640   14.8000   32.0590 C.3       1 745         0.0075
     16 C25        25.9450   14.1780   31.1900 C.ar      1 745        -0.0376
     17 C26        26.7970   14.7920   30.2100 C.ar      1 745        -0.0599
     18 C27        27.5160   13.9460   29.3030 C.ar      1 745        -0.0685
     19 C28        27.4080   12.5500   29.4060 C.ar      1 745        -0.0687
     20 C29        26.8100   11.9720   30.5180 C.ar      1 745        -0.0685
     21 C30        26.0970   12.7820   31.3880 C.ar      1 745        -0.0599
     22 C7         25.4190   14.3480   33.3900 C.3       1 745        -0.0236
     23 H1         21.3902   14.8955   32.0799 H         1 745         0.0531
     24 H2         22.9990   18.8515   34.7649 H         1 745         0.0620
     25 H3         24.5822   16.9866   34.1994 H         1 745         0.0586
     26 H4         19.0997   15.9677   31.8910 H         1 745         0.0603
     27 H5         17.5311   17.7975   32.4947 H         1 745         0.0611
     28 H6         20.7124   19.8668   34.5877 H         1 745         0.0619
     29 H7         16.1356   20.5466   34.2165 H         1 745         0.3181
     30 H8         16.4354   18.8643   33.7041 H         1 745         0.3181
     31 H9         19.4847   21.4733   34.2631 H         1 745         0.3181
     32 H10        17.7861   22.0079   34.3709 H         1 745         0.3181
     33 H11        23.3618   13.7520   33.6988 H         1 745         0.0490
     34 H12        24.7750   15.8334   31.6928 H         1 745         0.0488
     35 H13        26.8941   15.8704   30.1574 H         1 745         0.0557
     36 H14        28.1441   14.3850   28.5363 H         1 745         0.0599
     37 H15        27.7937   11.9197   28.6129 H         1 745         0.0559
     38 H16        26.8991   10.9075   30.7022 H         1 745         0.0599
     39 H17        25.6354   12.3286   32.2577 H         1 745         0.0557
     40 H18        25.7587   13.3074   33.4981 H         1 745         0.0318
     41 H19        26.1030   15.0155   33.9346 H         1 745         0.0318
@<TRIPOS>BOND
     1    1    2 ar 
     2    1    6 ar 
     3    1   14 1  
     4    2    3 ar 
     5    3    4 ar 
     6    3    7 ar 
     7    4    5 ar 
     8    4   10 ar 
     9    5    6 ar 
    10    7    8 ar 
    11    8    9 ar 
    12    9   10 ar 
    13    9   11 1  
    14   11   12 ar 
    15   11   13 ar 
    16   14   15 1  
    17   14   22 1  
    18   15   16 1  
    19   15   22 1  
    20   16   17 ar 
    21   16   21 ar 
    22   17   18 ar 
    23   18   19 ar 
    24   19   20 ar 
    25   20   21 ar 
    26    2   23 1  
    27    5   24 1  
    28    6   25 1  
    29    7   26 1  
    30    8   27 1  
    31   10   28 1  
    32   12   29 1  
    33   12   30 1  
    34   13   31 1  
    35   13   32 1  
    36   14   33 1  
    37   15   34 1  
    38   17   35 1  
    39   18   36 1  
    40   19   37 1  
    41   20   38 1  
    42   21   39 1  
    43   22   40 1  
    44   22   41 1  
@<TRIPOS>SUBSTRUCTURE
     1 745         1

