### 
### Created by X-TOOL on Mon Sep 10 21:12:53 2018
### 

@<TRIPOS>MOLECULE
1u71_ligand
   43    45     1     0     0
SMALL
GAST_HUCK


@<TRIPOS>ATOM
      1 N1         28.7960   13.1390   -4.3190 N.ar      1 MXA        -0.2797
      2 C2         27.5960   12.6440   -4.4550 C.ar      1 MXA         0.1600
      3 N2         27.1960   12.3270   -5.7000 N.pl3     1 MXA        -0.3066
      4 N3         26.7520   12.3650   -3.4240 N.ar      1 MXA        -0.2391
      5 C4         27.1020   12.6130   -2.2120 C.ar      1 MXA         0.1356
      6 N4         26.1370   12.3020   -1.3320 N.pl3     1 MXA        -0.3073
      7 C4A        28.3750   13.2270   -1.9150 C.ar      1 MXA         0.0701
      8 C5         28.9030   13.6070   -0.6740 C.ar      1 MXA        -0.0058
      9 C5M        28.1790   13.4400    0.6520 C.3       1 MXA        -0.0216
     10 C6         30.1710   14.1720   -0.6450 C.ar      1 MXA        -0.0032
     11 C7         30.8480   14.3570   -1.8610 C.ar      1 MXA         0.0034
     12 N8         30.4070   14.0210   -3.0420 N.ar      1 MXA        -0.3039
     13 C8A        29.1880   13.4550   -3.0760 C.ar      1 MXA         0.0814
     14 C9         30.8230   14.6760    0.6050 C.3       1 MXA         0.0107
     15 C1'        32.2470   14.3200    0.9540 C.ar      1 MXA        -0.0123
     16 C2'        33.2770   15.2500    0.8970 C.ar      1 MXA         0.0828
     17 O2'        32.8830   16.5130    0.4990 O.3       1 MXA        -0.3318
     18 C21        33.9050   17.4780    0.2510 C.3       1 MXA         0.0554
     19 C3'        34.5470   14.8740    1.2670 C.ar      1 MXA        -0.0477
     20 C4'        34.8080   13.5700    1.7060 C.ar      1 MXA        -0.0485
     21 C5'        33.8190   12.6740    1.7400 C.ar      1 MXA         0.0731
     22 O5'        33.8000   11.3260    2.0990 O.3       1 MXA        -0.3301
     23 C51        32.4620   10.8250    2.0700 C.3       1 MXA         0.0568
     24 C6'        32.5330   13.0600    1.3960 C.ar      1 MXA        -0.0382
     25 H1         27.8093   12.5239   -6.5038 H         1 MXA         0.1838
     26 H2         26.2765   11.8874   -5.8493 H         1 MXA         0.1838
     27 H3         26.2905   12.4528   -0.3247 H         1 MXA         0.1881
     28 H4         25.2431   11.9126   -1.6641 H         1 MXA         0.1881
     29 H5         27.1937   12.9833    0.4768 H         1 MXA         0.0430
     30 H6         28.0479   14.4245    1.1247 H         1 MXA         0.0430
     31 H7         28.7713   12.7913    1.3140 H         1 MXA         0.0430
     32 H8         31.8264   14.8214   -1.8143 H         1 MXA         0.0817
     33 H9         30.2019   14.3239    1.4418 H         1 MXA         0.0540
     34 H10        30.7819   15.7741    0.5545 H         1 MXA         0.0540
     35 H11        33.4448   18.4289   -0.0556 H         1 MXA         0.0570
     36 H12        34.5653   17.1151   -0.5504 H         1 MXA         0.0570
     37 H13        34.4925   17.6338    1.1678 H         1 MXA         0.0570
     38 H14        35.3550   15.5950    1.2183 H         1 MXA         0.0496
     39 H15        35.8080   13.2897    2.0166 H         1 MXA         0.0459
     40 H16        32.4621    9.7625    2.3548 H         1 MXA         0.0573
     41 H17        32.0521   10.9324    1.0549 H         1 MXA         0.0573
     42 H18        31.8418   11.3943    2.7780 H         1 MXA         0.0573
     43 H19        31.7284   12.3385    1.4805 H         1 MXA         0.0456
@<TRIPOS>BOND
     1    1    2 ar 
     2    1   13 ar 
     3    2    3 1  
     4    2    4 ar 
     5    4    5 ar 
     6    5    6 1  
     7    5    7 ar 
     8    7    8 ar 
     9    7   13 ar 
    10    8    9 1  
    11    8   10 ar 
    12   10   11 ar 
    13   10   14 1  
    14   11   12 ar 
    15   12   13 ar 
    16   14   15 1  
    17   15   16 ar 
    18   15   24 ar 
    19   16   17 1  
    20   16   19 ar 
    21   17   18 1  
    22   19   20 ar 
    23   20   21 ar 
    24   21   22 1  
    25   21   24 ar 
    26   22   23 1  
    27    3   25 1  
    28    3   26 1  
    29    6   27 1  
    30    6   28 1  
    31    9   29 1  
    32    9   30 1  
    33    9   31 1  
    34   11   32 1  
    35   14   33 1  
    36   14   34 1  
    37   18   35 1  
    38   18   36 1  
    39   18   37 1  
    40   19   38 1  
    41   20   39 1  
    42   23   40 1  
    43   23   41 1  
    44   23   42 1  
    45   24   43 1  
@<TRIPOS>SUBSTRUCTURE
     1 MXA         1

