### 
### Created by X-TOOL on Mon Sep 10 21:12:53 2018
### 

@<TRIPOS>MOLECULE
1u9e_ligand
   27    29     1     0     0
SMALL
GAST_HUCK


@<TRIPOS>ATOM
      1 C1         32.1100   36.9260   35.3650 C.ar      1 397        -0.0433
      2 C2         30.7430   37.0510   35.7400 C.ar      1 397        -0.0372
      3 C3         30.3120   36.6340   37.0060 C.ar      1 397         0.1132
      4 C4         31.2720   36.0610   37.9350 C.ar      1 397        -0.0205
      5 C5         32.6150   35.9410   37.5620 C.ar      1 397        -0.0453
      6 C6         33.0410   36.3680   36.2770 C.ar      1 397         0.0715
      7 O10        29.0750   36.6560   37.5800 O.3       1 397        -0.2598
      8 C11        29.2140   36.1310   38.8260 C.2       1 397         0.1154
      9 C12        30.5640   35.7210   39.1540 C.2       1 397        -0.0450
     10 C13        28.0660   36.0510   39.6530 C.ar      1 397         0.0061
     11 C14        26.7520   36.4000   39.1600 C.ar      1 397        -0.0582
     12 C15        25.5980   36.3370   39.9750 C.ar      1 397        -0.0309
     13 C16        25.7070   35.9250   41.3200 C.ar      1 397         0.0900
     14 C17        26.9710   35.5720   41.8530 C.ar      1 397        -0.0309
     15 C18        28.1220   35.6360   41.0390 C.ar      1 397        -0.0582
     16 O23        34.3640   36.2420   35.9250 O.3       1 397        -0.3409
     17 O24        24.5770   35.8710   42.0960 O.3       1 397        -0.3315
     18 H1         32.4381   37.2561   34.3860 H         1 397         0.0489
     19 H2         30.0298   37.4721   35.0407 H         1 397         0.0540
     20 H3         33.3329   35.5204   38.2568 H         1 397         0.0439
     21 H4         30.9456   35.2759   40.0717 H         1 397         0.0339
     22 H5         26.6480   36.7211   38.1299 H         1 397         0.0603
     23 H6         24.6303   36.6051   39.5666 H         1 397         0.0550
     24 H7         27.0541   35.2529   42.8856 H         1 397         0.0550
     25 H8         29.0808   35.3652   41.4660 H         1 397         0.0603
     26 H9         34.4881   36.5694   35.0419 H         1 397         0.2447
     27 H10        24.4485   34.9819   42.4048 H         1 397         0.2493
@<TRIPOS>BOND
     1    1    2 ar 
     2    1    6 ar 
     3    2    3 ar 
     4    3    4 ar 
     5    3    7 1  
     6    4    5 ar 
     7    4    9 1  
     8    5    6 ar 
     9    6   16 1  
    10    7    8 1  
    11    8    9 2  
    12    8   10 1  
    13   10   11 ar 
    14   10   15 ar 
    15   11   12 ar 
    16   12   13 ar 
    17   13   14 ar 
    18   13   17 1  
    19   14   15 ar 
    20    1   18 1  
    21    2   19 1  
    22    5   20 1  
    23    9   21 1  
    24   11   22 1  
    25   12   23 1  
    26   14   24 1  
    27   15   25 1  
    28   16   26 1  
    29   17   27 1  
@<TRIPOS>SUBSTRUCTURE
     1 397         1

