### 
### Created by X-TOOL on Mon Sep 10 21:12:52 2018
### 

@<TRIPOS>MOLECULE
1u9q_ligand
   54    55     1     0     0
SMALL
GAST_HUCK


@<TRIPOS>ATOM
      1 O34         0.4750   13.3590    5.6950 O.2       1 186        -0.3773
      2 C18         0.9950   12.3210    5.3570 C.2       1 186         0.3240
      3 O26         0.9730   12.0230    3.9440 O.3       1 186        -0.2505
      4 C27         0.5600   13.1480    3.1000 C.3       1 186         0.1113
      5 C28         0.6860   12.9310    1.6070 C.ar      1 186        -0.0130
      6 C33        -0.3500   12.3090    0.8840 C.ar      1 186        -0.0578
      7 C32        -0.1760   12.0660   -0.4760 C.ar      1 186        -0.0685
      8 C31         1.0220   12.4600   -1.0970 C.ar      1 186        -0.0687
      9 C30         2.0620   13.0820   -0.4130 C.ar      1 186        -0.0685
     10 C29         1.8620   13.3130    0.9520 C.ar      1 186        -0.0578
     11 N17         1.4450   11.6290    6.3750 N.am      1 186        -0.2393
     12 C13         2.1900   10.4510    6.4240 C.3       1 186         0.1424
     13 C16         1.6550    9.5380    7.5260 C.3       1 186         0.0214
     14 C20         0.4820    8.7330    6.9740 C.ar      1 186        -0.0386
     15 C25         0.7060    7.6150    6.1920 C.ar      1 186        -0.0601
     16 C24        -0.3850    6.9020    5.7020 C.ar      1 186        -0.0686
     17 C23        -1.6930    7.3010    5.9750 C.ar      1 186        -0.0687
     18 C22        -1.9320    8.4270    6.7550 C.ar      1 186        -0.0686
     19 C21        -0.8330    9.1340    7.2520 C.ar      1 186        -0.0601
     20 C12         3.4900   11.0810    6.7950 C.2       1 186         0.2065
     21 O19         4.3300   11.2030    5.9300 O.2       1 186        -0.3941
     22 N11         3.7000   11.5520    8.0020 N.am      1 186        -0.2665
     23 C8          5.0470   12.1390    8.2600 C.3       1 186         0.0780
     24 C14         4.9760   13.6750    8.4460 C.3       1 186        -0.0278
     25 C7          5.7550   11.4910    9.4630 C.2       1 186        -0.0339
     26 C6          5.8110   12.3330   10.4850 C.2       1 186        -0.0045
     27 C5          6.3540   12.2420   11.8320 C.2       1 186         0.1899
     28 O10         7.4730   11.8350   12.0670 O.2       1 186        -0.3602
     29 C4          5.4820   12.7690   12.8930 C.2       1 186         0.1836
     30 O9          5.5430   12.2720   13.9960 O.2       1 186        -0.3358
     31 H1          1.1791   14.0167    3.3684 H         1 186         0.0776
     32 H2         -0.4949   13.3670    3.3216 H         1 186         0.0776
     33 H3         -1.2707   12.0232    1.3796 H         1 186         0.0557
     34 H4         -0.9559   11.5783   -1.0496 H         1 186         0.0599
     35 H5          1.1411   12.2705   -2.1576 H         1 186         0.0559
     36 H6          2.9794   13.3724   -0.9120 H         1 186         0.0599
     37 H7          2.6434   13.8039    1.5208 H         1 186         0.0557
     38 H8          1.2147   12.0111    7.2700 H         1 186         0.1901
     39 H9          2.2288    9.9147    5.4644 H         1 186         0.0823
     40 H10         1.3171   10.1462    8.3780 H         1 186         0.0474
     41 H11         2.4498    8.8532    7.8566 H         1 186         0.0474
     42 H12         1.7171    7.2979    5.9635 H         1 186         0.0557
     43 H13        -0.2142    6.0193    5.0964 H         1 186         0.0599
     44 H14        -2.5257    6.7318    5.5780 H         1 186         0.0559
     45 H15        -2.9443    8.7483    6.9721 H         1 186         0.0599
     46 H16        -1.0009   10.0116    7.8658 H         1 186         0.0557
     47 H17         2.9950   11.5191    8.7105 H         1 186         0.1892
     48 H18         5.6623   11.9401    7.3702 H         1 186         0.0785
     49 H19         5.9859   14.0687    8.6335 H         1 186         0.0283
     50 H20         4.3258   13.9111    9.3012 H         1 186         0.0283
     51 H21         4.5660   14.1361    7.5354 H         1 186         0.0283
     52 H22         6.1555   10.4784    9.4732 H         1 186         0.0883
     53 H23         5.3535   13.2979   10.2713 H         1 186         0.0474
     54 H24         4.7953   13.5896   12.6909 H         1 186         0.1467
@<TRIPOS>BOND
     1    1    2 2  
     2    2    3 1  
     3    2   11 am 
     4    3    4 1  
     5    4    5 1  
     6    5    6 ar 
     7    5   10 ar 
     8    6    7 ar 
     9    7    8 ar 
    10    8    9 ar 
    11    9   10 ar 
    12   11   12 1  
    13   12   13 1  
    14   12   20 1  
    15   13   14 1  
    16   14   15 ar 
    17   14   19 ar 
    18   15   16 ar 
    19   16   17 ar 
    20   17   18 ar 
    21   18   19 ar 
    22   20   21 2  
    23   20   22 am 
    24   22   23 1  
    25   23   24 1  
    26   23   25 1  
    27   25   26 2  
    28   26   27 1  
    29   27   28 2  
    30   27   29 1  
    31   29   30 2  
    32    4   31 1  
    33    4   32 1  
    34    6   33 1  
    35    7   34 1  
    36    8   35 1  
    37    9   36 1  
    38   10   37 1  
    39   11   38 1  
    40   12   39 1  
    41   13   40 1  
    42   13   41 1  
    43   15   42 1  
    44   16   43 1  
    45   17   44 1  
    46   18   45 1  
    47   19   46 1  
    48   22   47 1  
    49   23   48 1  
    50   24   49 1  
    51   24   50 1  
    52   24   51 1  
    53   25   52 1  
    54   26   53 1  
    55   29   54 1  
@<TRIPOS>SUBSTRUCTURE
     1 186         1

