### 
### Created by X-TOOL on Mon Sep 10 21:12:51 2018
### 

@<TRIPOS>MOLECULE
1udt_ligand
   64    67     1     0     0
SMALL
GAST_HUCK


@<TRIPOS>ATOM
      1 C34        -0.1320   61.4670   80.1200 C.3       1 VIA        -0.0637
      2 C33        -0.1690   61.7920   81.5890 C.3       1 VIA        -0.0468
      3 C32        -1.2610   62.8640   81.9270 C.3       1 VIA        -0.0131
      4 C30        -1.1140   63.0310   83.4050 C.2       1 VIA         0.0335
      5 N29        -1.7980   62.2800   84.3700 N.2       1 VIA        -0.2168
      6 N28        -1.4140   62.6960   85.6120 N.pl3     1 VIA        -0.2065
      7 C31        -1.9480   62.1110   86.8450 C.3       1 VIA         0.0554
      8 C24        -0.4950   63.7000   85.4400 C.2       1 VIA         0.1661
      9 C23         0.2600   64.5190   86.3460 C.2       1 VIA         0.2517
     10 O27         0.1800   64.4220   87.5490 O.2       1 VIA        -0.3939
     11 N22         1.1250   65.4740   85.8160 N.am      1 VIA        -0.2065
     12 C21         1.3080   65.6840   84.4420 C.2       1 VIA         0.1466
     13 N26         0.5970   64.9070   83.5200 N.2       1 VIA        -0.3177
     14 C25        -0.2930   63.9280   84.0460 C.2       1 VIA         0.0457
     15 C9          2.2230   66.7020   84.0580 C.ar      1 VIA         0.0713
     16 C8          1.7310   67.6550   83.0840 C.ar      1 VIA        -0.0236
     17 C7          2.5680   68.7580   82.6170 C.ar      1 VIA         0.1035
     18 C6          3.9520   68.8600   83.1800 C.ar      1 VIA        -0.0387
     19 C5          4.4660   67.9110   84.1620 C.ar      1 VIA        -0.0236
     20 C4          3.6090   66.8060   84.6330 C.ar      1 VIA         0.1142
     21 O3          4.0190   65.8300   85.6200 O.3       1 VIA        -0.3111
     22 C2          5.3040   65.8030   86.2730 C.3       1 VIA         0.0701
     23 C1          5.2340   64.6230   87.2280 C.3       1 VIA        -0.0367
     24 S10         2.0230   69.8310   81.5610 S.o2      1 VIA         0.0673
     25 O11         2.3130   69.6000   80.2940 O.2       1 VIA        -0.1514
     26 O12         0.7120   69.8610   81.6110 O.2       1 VIA        -0.1514
     27 N14         2.6900   71.1590   82.1270 N.am      1 VIA        -0.2250
     28 C19         1.7240   72.0870   82.9630 C.3       1 VIA         0.0697
     29 C18         0.8200   73.0570   82.1780 C.3       1 VIA        -0.0146
     30 N17         1.4260   73.6860   80.9560 N.4       1 VIA         0.2354
     31 C20         1.5570   75.1560   81.2010 C.3       1 VIA        -0.0430
     32 C16         2.7520   73.1450   80.4160 C.3       1 VIA        -0.0146
     33 C15         3.5390   72.0920   81.2850 C.3       1 VIA         0.0697
     34 H1          0.6464   60.7131   79.9308 H         1 VIA         0.0231
     35 H2          0.0943   62.3791   79.5482 H         1 VIA         0.0231
     36 H3         -1.1095   61.0712   79.8073 H         1 VIA         0.0231
     37 H4          0.8148   62.1800   81.8916 H         1 VIA         0.0282
     38 H5         -0.3889   60.8721   82.1506 H         1 VIA         0.0282
     39 H6         -2.2664   62.5011   81.6673 H         1 VIA         0.0412
     40 H7         -1.0649   63.8094   81.3999 H         1 VIA         0.0412
     41 H8         -1.4912   62.6072   87.7140 H         1 VIA         0.0590
     42 H9         -1.7148   61.0363   86.8720 H         1 VIA         0.0590
     43 H10        -3.0387   62.2504   86.8746 H         1 VIA         0.0590
     44 H11         1.6456   66.0428   86.4527 H         1 VIA         0.2457
     45 H12         0.7249   67.5480   82.6951 H         1 VIA         0.0661
     46 H13         4.5943   69.6670   82.8464 H         1 VIA         0.0650
     47 H14         5.4747   68.0175   84.5445 H         1 VIA         0.0557
     48 H15         5.4767   66.7382   86.8258 H         1 VIA         0.0616
     49 H16         6.1088   65.6579   85.5373 H         1 VIA         0.0616
     50 H17         6.1867   64.5334   87.7705 H         1 VIA         0.0256
     51 H18         5.0484   63.7006   86.6582 H         1 VIA         0.0256
     52 H19         4.4163   64.7809   87.9467 H         1 VIA         0.0256
     53 H20         2.3483   72.6907   83.6381 H         1 VIA         0.0531
     54 H21         1.0690   71.4324   83.5566 H         1 VIA         0.0531
     55 H22         0.5242   73.8671   82.8608 H         1 VIA         0.0830
     56 H23        -0.0740   72.5002   81.8606 H         1 VIA         0.0830
     57 H24         0.7551   73.5535   80.2155 H         1 VIA         0.2032
     58 H25         1.9998   75.6371   80.3164 H         1 VIA         0.0778
     59 H26         2.2048   75.3260   82.0736 H         1 VIA         0.0778
     60 H27         0.5628   75.5858   81.3930 H         1 VIA         0.0778
     61 H28         3.4187   74.0071   80.2665 H         1 VIA         0.0830
     62 H29         2.5399   72.6727   79.4454 H         1 VIA         0.0830
     63 H30         4.1416   71.4750   80.6022 H         1 VIA         0.0531
     64 H31         4.2050   72.6456   81.9633 H         1 VIA         0.0531
@<TRIPOS>BOND
     1    1    2 1  
     2    2    3 1  
     3    3    4 1  
     4    4    5 2  
     5    4   14 1  
     6    5    6 1  
     7    6    7 1  
     8    6    8 1  
     9    8    9 1  
    10    8   14 2  
    11    9   10 2  
    12    9   11 am 
    13   11   12 am 
    14   12   13 2  
    15   12   15 1  
    16   13   14 1  
    17   15   16 ar 
    18   15   20 ar 
    19   16   17 ar 
    20   17   18 ar 
    21   17   24 1  
    22   18   19 ar 
    23   19   20 ar 
    24   20   21 1  
    25   21   22 1  
    26   22   23 1  
    27   24   25 2  
    28   24   26 2  
    29   24   27 am 
    30   27   28 1  
    31   27   33 1  
    32   28   29 1  
    33   29   30 1  
    34   30   31 1  
    35   30   32 1  
    36   32   33 1  
    37    1   34 1  
    38    1   35 1  
    39    1   36 1  
    40    2   37 1  
    41    2   38 1  
    42    3   39 1  
    43    3   40 1  
    44    7   41 1  
    45    7   42 1  
    46    7   43 1  
    47   11   44 1  
    48   16   45 1  
    49   18   46 1  
    50   19   47 1  
    51   22   48 1  
    52   22   49 1  
    53   23   50 1  
    54   23   51 1  
    55   23   52 1  
    56   28   53 1  
    57   28   54 1  
    58   29   55 1  
    59   29   56 1  
    60   30   57 1  
    61   31   58 1  
    62   31   59 1  
    63   31   60 1  
    64   32   61 1  
    65   32   62 1  
    66   33   63 1  
    67   33   64 1  
@<TRIPOS>SUBSTRUCTURE
     1 VIA         1

