### 
### Created by X-TOOL on Mon Sep 10 21:12:52 2018
### 

@<TRIPOS>MOLECULE
1udu_ligand
   48    53     1     0     0
SMALL
GAST_HUCK


@<TRIPOS>ATOM
      1 C3         24.4350   39.2430  103.9130 C.ar      1 CIA        -0.0802
      2 C2         24.1360   38.3240  102.8310 C.ar      1 CIA        -0.0829
      3 C1         22.7830   38.0950  102.3810 C.ar      1 CIA        -0.0797
      4 C6         21.6780   38.8160  103.0450 C.ar      1 CIA        -0.0311
      5 C7         20.2650   38.8320  102.8660 C.2       1 CIA        -0.0396
      6 C8         19.7770   39.7580  103.8580 C.2       1 CIA         0.0736
      7 N9         20.8310   40.3200  104.6440 N.pl3     1 CIA        -0.2785
      8 C5         21.9880   39.7480  104.1500 C.ar      1 CIA         0.0561
      9 C4         23.3840   39.9550  104.5770 C.ar      1 CIA        -0.0482
     10 C13        18.2200   40.0760  104.0230 C.3       1 CIA         0.1253
     11 N12        17.2740   38.9820  103.3870 N.am      1 CIA        -0.2237
     12 C17        15.8670   39.0930  103.4970 C.2       1 CIA         0.2073
     13 O20        15.2510   40.0230  104.0710 O.2       1 CIA        -0.3942
     14 C16        14.9650   37.9990  102.9000 C.3       1 CIA         0.1231
     15 N15        15.5520   37.1460  101.8010 N.am      1 CIA        -0.2555
     16 C31        16.9480   37.0020  101.6110 C.2       1 CIA         0.2075
     17 O32        17.4320   36.2930  100.6780 O.2       1 CIA        -0.3941
     18 C11        17.9280   37.7580  102.6480 C.3       1 CIA         0.1404
     19 C10        19.2610   38.1050  101.8980 C.3       1 CIA        -0.0005
     20 C18        14.5570   36.4650  100.9360 C.3       1 CIA         0.0252
     21 C22        18.0370   41.5720  103.4140 C.ar      1 CIA        -0.0245
     22 C27        17.2470   42.5530  104.1340 C.ar      1 CIA        -0.0759
     23 C26        17.0790   43.8830  103.6150 C.ar      1 CIA        -0.0473
     24 C25        17.7210   44.2480  102.3330 C.ar      1 CIA         0.1163
     25 O30        17.6890   45.4370  101.6740 O.3       1 CIA        -0.2954
     26 C29        18.4970   45.1810  100.4870 C.3       1 CIA         0.1854
     27 O28        18.9980   43.8120  100.4840 O.3       1 CIA        -0.2927
     28 C24        18.4950   43.2940  101.6250 C.ar      1 CIA         0.1174
     29 C23        18.6630   41.9880  102.1300 C.ar      1 CIA        -0.0355
     30 H1         25.4633   39.3923  104.2219 H         1 CIA         0.0503
     31 H2         24.9496   37.7953  102.3476 H         1 CIA         0.0500
     32 H3         22.5817   37.4053  101.5693 H         1 CIA         0.0510
     33 H4         20.7464   41.0023  105.4110 H         1 CIA         0.2216
     34 H5         23.6129   40.6395  105.3858 H         1 CIA         0.0531
     35 H6         17.9827   40.1091  105.0966 H         1 CIA         0.0879
     36 H7         14.0701   38.4929  102.4936 H         1 CIA         0.0765
     37 H8         14.6724   37.3270  103.7202 H         1 CIA         0.0765
     38 H9         18.1812   37.0330  103.4356 H         1 CIA         0.0817
     39 H10        19.7214   37.1763  101.5299 H         1 CIA         0.0369
     40 H11        19.0363   38.7651  101.0473 H         1 CIA         0.0369
     41 H12        15.0806   35.8723  100.1714 H         1 CIA         0.0488
     42 H13        13.9218   37.2172  100.4454 H         1 CIA         0.0488
     43 H14        13.9311   35.8006  101.5499 H         1 CIA         0.0488
     44 H15        16.7787   42.2803  105.0728 H         1 CIA         0.0441
     45 H16        16.4876   44.6115  104.1577 H         1 CIA         0.0493
     46 H17        19.3492   45.8764  100.4746 H         1 CIA         0.0970
     47 H18        17.8803   45.3407   99.5902 H         1 CIA         0.0970
     48 H19        19.2590   41.2744  101.5726 H         1 CIA         0.0454
@<TRIPOS>BOND
     1    1    2 ar 
     2    1    9 ar 
     3    2    3 ar 
     4    3    4 ar 
     5    4    5 1  
     6    4    8 ar 
     7    5    6 2  
     8    5   19 1  
     9    6    7 1  
    10    6   10 1  
    11    7    8 1  
    12    8    9 ar 
    13   10   11 1  
    14   10   21 1  
    15   11   12 am 
    16   11   18 1  
    17   12   13 2  
    18   12   14 1  
    19   14   15 1  
    20   15   16 am 
    21   15   20 1  
    22   16   17 2  
    23   16   18 1  
    24   18   19 1  
    25   21   22 ar 
    26   21   29 ar 
    27   22   23 ar 
    28   23   24 ar 
    29   24   25 1  
    30   24   28 ar 
    31   25   26 1  
    32   26   27 1  
    33   27   28 1  
    34   28   29 ar 
    35    1   30 1  
    36    2   31 1  
    37    3   32 1  
    38    7   33 1  
    39    9   34 1  
    40   10   35 1  
    41   14   36 1  
    42   14   37 1  
    43   18   38 1  
    44   19   39 1  
    45   19   40 1  
    46   20   41 1  
    47   20   42 1  
    48   20   43 1  
    49   22   44 1  
    50   23   45 1  
    51   26   46 1  
    52   26   47 1  
    53   29   48 1  
@<TRIPOS>SUBSTRUCTURE
     1 CIA         1

