### 
### Created by X-TOOL on Fri Sep 26 17:34:25 2014
### 

@<TRIPOS>MOLECULE
1ugp_ligand
   13    12     1     0     0
SMALL
GAST_HUCK


@<TRIPOS>ATOM
      1 C1          8.3480   33.7380   20.0450 C.3       1 BUA        -0.0638
      2 C2          8.7920   34.8590   19.0760 C.3       1 BUA        -0.0443
      3 C3          9.7670   35.2570   17.9440 C.3       1 BUA        -0.0001
      4 C4          9.1760   34.9100   16.5750 C.2       1 BUA         0.0348
      5 O1          9.3020   35.7490   15.6450 O.co2     1 BUA        -0.5690
      6 O2          8.6060   33.8200   16.4360 O.co2     1 BUA        -0.5690
      7 H1          7.5184   34.1007   20.6697 H         1 BUA         0.0231
      8 H2          9.1937   33.4529   20.6880 H         1 BUA         0.0231
      9 H3          8.0160   32.8633   19.4664 H         1 BUA         0.0231
     10 H4          9.0108   35.6571   19.8007 H         1 BUA         0.0280
     11 H5          7.8331   35.0676   18.5791 H         1 BUA         0.0280
     12 H6         10.7148   34.7146   18.0762 H         1 BUA         0.0430
     13 H7          9.9543   36.3398   17.9926 H         1 BUA         0.0430
@<TRIPOS>BOND
     1    1    2 1  
     2    2    3 1  
     3    3    4 1  
     4    4    5 ar 
     5    4    6 ar 
     6    1    7 1  
     7    1    8 1  
     8    1    9 1  
     9    2   10 1  
    10    2   11 1  
    11    3   12 1  
    12    3   13 1  
@<TRIPOS>SUBSTRUCTURE
     1 BUA         1

