### 
### Created by X-TOOL on Sun Sep  9 21:50:03 2018
### 

@<TRIPOS>MOLECULE
1ugw_ligand
   24    24     1     0     0
SMALL
GAST_HUCK


@<TRIPOS>ATOM
      1 C1         51.6000   54.8790   66.4450 C.3       1 NON         0.1854
      2 C2         52.3290   56.2270   66.1850 C.3       1 NON         0.1339
      3 C3         52.2690   57.1440   67.4150 C.3       1 NON         0.1141
      4 C4         50.8020   57.2860   67.8870 C.3       1 NON         0.1119
      5 C5         50.2500   55.8880   68.1320 C.3       1 NON         0.1130
      6 C6         48.8390   55.8830   68.6790 C.3       1 NON         0.0730
      7 O1         51.4950   54.1580   65.2640 O.3       1 NON        -0.3649
      8 O2         53.6850   55.9710   65.8490 O.3       1 NON        -0.3841
      9 O3         52.7810   58.4100   67.0500 O.3       1 NON        -0.3864
     10 O4         50.0350   57.9420   66.8770 O.3       1 NON        -0.3865
     11 O5         50.2660   55.1280   66.9050 O.3       1 NON        -0.3407
     12 O6         47.8880   56.1630   67.6700 O.3       1 NON        -0.3924
     13 H1         52.1571   54.2979   67.1946 H         1 NON         0.0935
     14 H2         51.8393   56.7362   65.3418 H         1 NON         0.0671
     15 H3         52.8760   56.7178   68.2273 H         1 NON         0.0648
     16 H4         50.7625   57.8717   68.8172 H         1 NON         0.0647
     17 H5         50.9030   55.3921   68.8652 H         1 NON         0.0647
     18 H6         48.7589   56.6466   69.4667 H         1 NON         0.0584
     19 H7         48.6252   54.8920   69.1058 H         1 NON         0.0584
     20 H8         51.0091   54.6669   64.6257 H         1 NON         0.2126
     21 H9         54.1221   56.7916   65.6538 H         1 NON         0.2101
     22 H10        52.7473   58.9922   67.7999 H         1 NON         0.2100
     23 H11        49.1305   58.0071   67.1601 H         1 NON         0.2100
     24 H12        48.0636   57.0202   67.3000 H         1 NON         0.2095
@<TRIPOS>BOND
     1    1    2 1  
     2    1    7 1  
     3    1   11 1  
     4    2    3 1  
     5    2    8 1  
     6    3    4 1  
     7    3    9 1  
     8    4    5 1  
     9    4   10 1  
    10    5    6 1  
    11    5   11 1  
    12    6   12 1  
    13    1   13 1  
    14    2   14 1  
    15    3   15 1  
    16    4   16 1  
    17    5   17 1  
    18    6   18 1  
    19    6   19 1  
    20    7   20 1  
    21    8   21 1  
    22    9   22 1  
    23   10   23 1  
    24   12   24 1  
@<TRIPOS>SUBSTRUCTURE
     1 NON         1

