### 
### Created by X-TOOL on Mon Sep 10 21:12:50 2018
### 

@<TRIPOS>MOLECULE
1ugx_ligand
   54    55     1     0     0
SMALL
GAST_HUCK


@<TRIPOS>ATOM
      1 C1         38.2590   34.4510   25.4310 C.3       1 GAL         0.1884
      2 C2         39.3090   34.6100   24.3490 C.3       1 GAL         0.1341
      3 C3         40.0520   35.9310   24.5350 C.3       1 GAL         0.1141
      4 C4         39.0350   37.1720   24.4260 C.3       1 GAL         0.1119
      5 C5         37.9510   37.0050   25.5490 C.3       1 GAL         0.1130
      6 C6         36.7700   37.8920   25.9000 C.3       1 GAL         0.0730
      7 O2         40.1670   33.4770   24.4450 O.3       1 GAL        -0.3841
      8 O3         41.0350   36.0550   23.5120 O.3       1 GAL        -0.3864
      9 O4         38.3350   37.1690   23.1730 O.3       1 GAL        -0.3865
     10 O5         37.3220   35.6210   25.4040 O.3       1 GAL        -0.3405
     11 O6         35.7330   37.8690   26.8680 O.3       1 GAL        -0.3924
     12 O6         32.0040   32.6350   26.5090 O.3       1 MGC        -0.3924
     13 C6         32.8500   33.0820   27.5500 C.3       1 MGC         0.0730
     14 C5         34.2970   32.5870   27.4100 C.3       1 MGC         0.1130
     15 O5         34.3580   31.0970   27.0990 O.3       1 MGC        -0.3408
     16 C1         35.7100   30.4760   26.9570 C.3       1 MGC         0.1845
     17 O1         36.3570   30.4950   28.2390 O.3       1 MGC        -0.3522
     18 CM         35.7250   29.7650   29.4700 C.3       1 MGC         0.0395
     19 C2         36.5020   31.2500   25.9000 C.3       1 MGC         0.1213
     20 N2         37.7340   30.5590   25.8660 N.am      1 MGC        -0.2766
     21 C7         38.4030   30.2170   24.7300 C.2       1 MGC         0.1733
     22 O7         37.8600   30.1380   23.6130 O.2       1 MGC        -0.3974
     23 C8         39.8880   29.9270   24.8530 C.3       1 MGC         0.0257
     24 C3         36.5490   32.7350   26.2580 C.3       1 MGC         0.1176
     25 O3         37.2990   33.3920   25.2820 O.3       1 MGC        -0.3403
     26 C4         35.1040   33.3520   26.2630 C.3       1 MGC         0.1120
     27 O4         34.5370   33.0940   24.9530 O.3       1 MGC        -0.3865
     28 H1         38.7751   34.3613   26.3982 H         1 GAL         0.0938
     29 H2         38.8268   34.6158   23.3603 H         1 GAL         0.0671
     30 H3         40.5381   35.9413   25.5217 H         1 GAL         0.0648
     31 H4         39.5840   38.1172   24.5497 H         1 GAL         0.0647
     32 H5         38.5552   37.0076   26.4682 H         1 GAL         0.0647
     33 H6         36.2119   37.9327   24.9530 H         1 GAL         0.0584
     34 H7         37.2486   38.8648   26.0857 H         1 GAL         0.0584
     35 H8         40.5761   33.4627   25.3023 H         1 GAL         0.2101
     36 H9         41.6417   35.3261   23.5673 H         1 GAL         0.2100
     37 H10        37.8689   36.3471   23.0739 H         1 GAL         0.2100
     38 H11        35.2177   37.0783   26.7597 H         1 GAL         0.2095
     39 H12        32.3356   32.9492   25.6760 H         1 GAL         0.2095
     40 H13        32.4477   32.7191   28.5073 H         1 GAL         0.0584
     41 H14        32.8553   34.1820   27.5479 H         1 GAL         0.0584
     42 H15        34.8037   32.7662   28.3697 H         1 GAL         0.0647
     43 H16        35.6032   29.4322   26.6269 H         1 GAL         0.0934
     44 H17        36.3728   29.9001   30.3487 H         1 GAL         0.0525
     45 H18        35.6260   28.6920   29.2489 H         1 GAL         0.0525
     46 H19        34.7319   30.1897   29.6780 H         1 GAL         0.0525
     47 H20        36.0161   31.1617   24.9171 H         1 GAL         0.0633
     48 H21        38.1451   30.3021   26.7406 H         1 GAL         0.1857
     49 H22        40.2938   29.6664   23.8644 H         1 GAL         0.0467
     50 H23        40.0413   29.0862   25.5455 H         1 GAL         0.0467
     51 H24        40.4050   30.8182   25.2382 H         1 GAL         0.0467
     52 H25        37.0123   32.8650   27.2471 H         1 GAL         0.0649
     53 H26        35.1282   34.4331   26.4644 H         1 GAL         0.0647
     54 H27        33.6583   33.4529   24.9132 H         1 GAL         0.2100
@<TRIPOS>BOND
     1    1    2 1  
     2    1   10 1  
     3    2    3 1  
     4    2    7 1  
     5    3    4 1  
     6    3    8 1  
     7    5    4 1  
     8    4    9 1  
     9    5    6 1  
    10   10    5 1  
    11    6   11 1  
    12   13   12 1  
    13   14   13 1  
    14   14   15 1  
    15   26   14 1  
    16   16   15 1  
    17   16   17 1  
    18   19   16 1  
    19   17   18 1  
    20   19   20 1  
    21   24   19 1  
    22   20   21 am 
    23   21   22 2  
    24   21   23 1  
    25   25   24 1  
    26   24   26 1  
    27   25    1 1  
    28   26   27 1  
    29    1   28 1  
    30    2   29 1  
    31    3   30 1  
    32    4   31 1  
    33    5   32 1  
    34    6   33 1  
    35    6   34 1  
    36    7   35 1  
    37    8   36 1  
    38    9   37 1  
    39   11   38 1  
    40   12   39 1  
    41   13   40 1  
    42   13   41 1  
    43   14   42 1  
    44   16   43 1  
    45   18   44 1  
    46   18   45 1  
    47   18   46 1  
    48   19   47 1  
    49   20   48 1  
    50   23   49 1  
    51   23   50 1  
    52   23   51 1  
    53   24   52 1  
    54   26   53 1  
    55   27   54 1  
@<TRIPOS>SUBSTRUCTURE
     1 GAL         1

