### 
### Created by X-TOOL on Sun Sep  9 21:50:03 2018
### 

@<TRIPOS>MOLECULE
1ugy_ligand
   45    46     1     0     0
SMALL
GAST_HUCK


@<TRIPOS>ATOM
      1 C1         51.6000   54.6100   66.4430 C.3       1 NON         0.1880
      2 C2         52.3750   55.8880   66.1460 C.3       1 NON         0.1341
      3 C3         52.3560   56.8120   67.3510 C.3       1 NON         0.1141
      4 C4         50.9200   57.0360   67.8360 C.3       1 NON         0.1119
      5 C5         50.2380   55.6870   68.1010 C.3       1 NON         0.1130
      6 C6         48.8000   55.7580   68.6030 C.3       1 NON         0.0730
      7 O2         53.7220   55.5480   65.8430 O.3       1 NON        -0.3841
      8 O3         52.9760   58.0550   67.0190 O.3       1 NON        -0.3864
      9 O4         50.2100   57.7790   66.8600 O.3       1 NON        -0.3865
     10 O5         50.2780   54.8910   66.9000 O.3       1 NON        -0.3405
     11 O6         47.8940   55.9580   67.5360 O.3       1 NON        -0.3924
     12 C1         53.2960   49.8590   69.4860 C.3       1 NON         0.1854
     13 C2         53.8220   48.9900   68.3470 C.3       1 NON         0.1339
     14 C3         54.4840   49.8880   67.2910 C.3       1 NON         0.1141
     15 C4         53.5510   51.0100   66.8570 C.3       1 NON         0.1119
     16 C5         52.8610   51.6870   68.0470 C.3       1 NON         0.1134
     17 C6         51.7600   52.5500   67.5540 C.3       1 NON         0.0796
     18 O1         52.7380   49.0840   70.4910 O.3       1 NON        -0.3649
     19 O2         54.7540   48.0400   68.8400 O.3       1 NON        -0.3841
     20 O3         54.8280   49.1180   66.1500 O.3       1 NON        -0.3864
     21 O4         54.3060   51.9910   66.1570 O.3       1 NON        -0.3865
     22 O5         52.2940   50.7350   68.9620 O.3       1 NON        -0.3407
     23 O6         52.3130   53.8560   67.3580 O.3       1 NON        -0.3460
     24 H1         51.5163   54.0320   65.5109 H         1 NON         0.0937
     25 H2         51.9195   56.4005   65.2859 H         1 NON         0.0671
     26 H3         52.9283   56.3408   68.1637 H         1 NON         0.0648
     27 H4         50.9428   57.6104   68.7738 H         1 NON         0.0647
     28 H5         50.8263   55.1750   68.8767 H         1 NON         0.0647
     29 H6         48.7087   56.5938   69.3123 H         1 NON         0.0584
     30 H7         48.5512   54.8155   69.1127 H         1 NON         0.0584
     31 H8         54.1123   55.1090   66.5897 H         1 NON         0.2101
     32 H9         52.9943   58.6136   67.7872 H         1 NON         0.2100
     33 H10        49.3252   57.9387   67.1670 H         1 NON         0.2100
     34 H11        48.1016   56.7731   67.0944 H         1 NON         0.2095
     35 H12        54.1241   50.4504   69.9037 H         1 NON         0.0935
     36 H13        52.9794   48.4541   67.8857 H         1 NON         0.0671
     37 H14        55.3961   50.3269   67.7215 H         1 NON         0.0648
     38 H15        52.7818   50.5928   66.1904 H         1 NON         0.0647
     39 H16        53.6009   52.3013   68.5810 H         1 NON         0.0647
     40 H17        50.9490   52.5899   68.2961 H         1 NON         0.0587
     41 H18        51.3685   52.1582   66.6036 H         1 NON         0.0587
     42 H19        53.3994   48.4998   70.8430 H         1 NON         0.2126
     43 H20        54.3317   47.4922   69.4912 H         1 NON         0.2101
     44 H21        54.0394   48.7531   65.7661 H         1 NON         0.2100
     45 H22        53.7245   52.6762   65.8490 H         1 NON         0.2100
@<TRIPOS>BOND
     1    1    2 1  
     2    1   10 1  
     3   23    1 1  
     4    2    3 1  
     5    2    7 1  
     6    3    4 1  
     7    3    8 1  
     8    5    4 1  
     9    4    9 1  
    10    5    6 1  
    11   10    5 1  
    12    6   11 1  
    13   12   13 1  
    14   12   18 1  
    15   22   12 1  
    16   14   13 1  
    17   13   19 1  
    18   15   14 1  
    19   14   20 1  
    20   16   15 1  
    21   15   21 1  
    22   17   16 1  
    23   16   22 1  
    24   17   23 1  
    25    1   24 1  
    26    2   25 1  
    27    3   26 1  
    28    4   27 1  
    29    5   28 1  
    30    6   29 1  
    31    6   30 1  
    32    7   31 1  
    33    8   32 1  
    34    9   33 1  
    35   11   34 1  
    36   12   35 1  
    37   13   36 1  
    38   14   37 1  
    39   15   38 1  
    40   16   39 1  
    41   17   40 1  
    42   17   41 1  
    43   18   42 1  
    44   19   43 1  
    45   20   44 1  
    46   21   45 1  
@<TRIPOS>SUBSTRUCTURE
     1 NON         1

