### 
### Created by X-TOOL on Mon Sep 10 21:12:50 2018
### 

@<TRIPOS>MOLECULE
1uh1_ligand
   54    55     1     0     0
SMALL
GAST_HUCK


@<TRIPOS>ATOM
      1 C1         30.3420   85.0510   38.8280 C.3       1 NGA         0.1854
      2 C2         29.9290   85.0910   40.3210 C.3       1 NGA         0.1210
      3 C3         30.7820   84.0380   41.0760 C.3       1 NGA         0.1111
      4 C4         30.4850   82.5710   40.5120 C.3       1 NGA         0.1116
      5 C5         31.0090   82.5400   38.9950 C.3       1 NGA         0.1130
      6 C6         30.7990   81.1800   38.3120 C.3       1 NGA         0.0730
      7 C7         29.2800   87.5280   40.5780 C.2       1 NGA         0.1733
      8 C8         29.7270   88.8700   41.1060 C.3       1 NGA         0.0257
      9 N2         30.1570   86.4420   40.7480 N.am      1 NGA        -0.2766
     10 O3         30.3830   84.0870   42.4100 O.3       1 NGA        -0.3867
     11 O4         29.0850   82.2810   40.5900 O.3       1 NGA        -0.3865
     12 O5         30.2030   83.6660   38.2700 O.3       1 NGA        -0.3408
     13 O6         31.0710   81.2030   36.8860 O.3       1 NGA        -0.3924
     14 O7         28.1750   87.4560   40.0030 O.2       1 NGA        -0.3974
     15 C1         30.3850   88.0800   35.3160 C.3       1 AMG         0.1876
     16 C2         29.9760   87.6430   36.6400 C.3       1 AMG         0.1345
     17 C3         30.2070   86.0620   36.7520 C.3       1 AMG         0.1206
     18 C4         29.4350   85.3320   35.5810 C.3       1 AMG         0.1123
     19 C5         29.8440   85.9270   34.2280 C.3       1 AMG         0.1130
     20 C6         29.2320   85.3800   32.9470 C.3       1 AMG         0.0730
     21 C7         32.3410   88.6460   33.7810 C.3       1 AMG         0.0395
     22 O1         31.7940   87.9890   34.9790 O.3       1 AMG        -0.3520
     23 O2         30.6710   88.2400   37.6900 O.3       1 AMG        -0.3841
     24 O3         29.6600   85.7000   38.0820 O.3       1 AMG        -0.3403
     25 O4         28.0840   85.5690   35.8920 O.3       1 AMG        -0.3865
     26 O5         29.6300   87.3820   34.3170 O.3       1 AMG        -0.3405
     27 O6         27.8720   85.7750   32.8890 O.3       1 AMG        -0.3924
     28 H1         31.3860   85.3902   38.7583 H         1 NGA         0.0935
     29 H2         28.8638   84.8430   40.4387 H         1 NGA         0.0633
     30 H3         31.8529   84.2699   40.9791 H         1 NGA         0.0645
     31 H4         31.0351   81.8263   41.1059 H         1 NGA         0.0647
     32 H5         32.0834   82.7749   38.9727 H         1 NGA         0.0647
     33 H6         29.7539   80.8718   38.4627 H         1 NGA         0.0584
     34 H7         31.4693   80.4460   38.7830 H         1 NGA         0.0584
     35 H8         28.9484   89.6207   40.9054 H         1 NGA         0.0467
     36 H9         30.6608   89.1679   40.6068 H         1 NGA         0.0467
     37 H10        29.8973   88.7992   42.1904 H         1 NGA         0.0467
     38 H11        31.0233   86.6292   41.2112 H         1 NGA         0.1857
     39 H12        29.4538   83.8982   42.4686 H         1 NGA         0.2100
     40 H13        28.6005   82.9279   40.0908 H         1 NGA         0.2100
     41 H14        30.9240   80.3376   36.5227 H         1 NGA         0.2095
     42 H15        30.1217   89.1462   35.2536 H         1 NGA         0.0937
     43 H16        28.9061   87.8689   36.7596 H         1 NGA         0.0671
     44 H17        31.2776   85.8156   36.6960 H         1 NGA         0.0651
     45 H18        29.6470   84.2526   35.5799 H         1 NGA         0.0647
     46 H19        30.9254   85.7495   34.1332 H         1 NGA         0.0647
     47 H20        29.2991   84.2821   32.9440 H         1 NGA         0.0584
     48 H21        29.7719   85.7827   32.0773 H         1 NGA         0.0584
     49 H22        33.4215   88.4503   33.7166 H         1 NGA         0.0525
     50 H23        32.1680   89.7303   33.8462 H         1 NGA         0.0525
     51 H24        31.8424   88.2484   32.8848 H         1 NGA         0.0525
     52 H25        30.3369   87.9118   38.5165 H         1 NGA         0.2101
     53 H26        27.5332   85.1789   35.2235 H         1 NGA         0.2100
     54 H27        27.4099   85.4269   33.6425 H         1 NGA         0.2095
@<TRIPOS>BOND
     1    1    2 1  
     2    1   12 1  
     3   24    1 1  
     4    2    3 1  
     5    2    9 1  
     6    3    4 1  
     7    3   10 1  
     8    5    4 1  
     9    4   11 1  
    10    5    6 1  
    11   12    5 1  
    12    6   13 1  
    13    7    8 1  
    14    9    7 am 
    15    7   14 2  
    16   16   15 1  
    17   15   22 1  
    18   15   26 1  
    19   17   16 1  
    20   16   23 1  
    21   17   18 1  
    22   17   24 1  
    23   18   19 1  
    24   18   25 1  
    25   19   20 1  
    26   19   26 1  
    27   20   27 1  
    28   22   21 1  
    29    1   28 1  
    30    2   29 1  
    31    3   30 1  
    32    4   31 1  
    33    5   32 1  
    34    6   33 1  
    35    6   34 1  
    36    8   35 1  
    37    8   36 1  
    38    8   37 1  
    39    9   38 1  
    40   10   39 1  
    41   11   40 1  
    42   13   41 1  
    43   15   42 1  
    44   16   43 1  
    45   17   44 1  
    46   18   45 1  
    47   19   46 1  
    48   20   47 1  
    49   20   48 1  
    50   21   49 1  
    51   21   50 1  
    52   21   51 1  
    53   23   52 1  
    54   25   53 1  
    55   27   54 1  
@<TRIPOS>SUBSTRUCTURE
     1 NGA         1

