### 
### Created by X-TOOL on Mon Sep 10 21:12:50 2018
### 

@<TRIPOS>MOLECULE
1ui0_ligand
   12    12     1     0     0
SMALL
GAST_HUCK


@<TRIPOS>ATOM
      1 N1         23.2440    9.8690   10.4930 N.am      1 URA        -0.2031
      2 C2         22.3360    8.8680   10.1490 C.2       1 URA         0.3281
      3 O2         21.9440    8.6400    9.0140 O.2       1 URA        -0.3816
      4 N3         21.8890    8.1140   11.2030 N.am      1 URA        -0.1867
      5 C4         22.2250    8.2260   12.5460 C.2       1 URA         0.1822
      6 O4         21.8020    7.5230   13.4690 O.2       1 URA        -0.4124
      7 C5         23.1750    9.2990   12.8060 C.2       1 URA         0.0059
      8 C6         23.6430   10.0660   11.8030 C.2       1 URA         0.0533
      9 H1         23.6156   10.4584    9.7757 H         1 URA         0.2452
     10 H2         21.2373    7.3904   10.9757 H         1 URA         0.2259
     11 H3         23.5113    9.4835   13.8252 H         1 URA         0.0258
     12 H4         24.3527   10.8606   12.0285 H         1 URA         0.1175
@<TRIPOS>BOND
     1    1    2 am 
     2    1    8 am 
     3    2    3 2  
     4    2    4 am 
     5    4    5 am 
     6    5    6 2  
     7    5    7 1  
     8    7    8 2  
     9    1    9 1  
    10    4   10 1  
    11    7   11 1  
    12    8   12 1  
@<TRIPOS>SUBSTRUCTURE
     1 URA         1

