### 
### Created by X-TOOL on Mon Sep 10 21:12:52 2018
### 

@<TRIPOS>MOLECULE
1uk0_ligand
   53    56     1     0     0
SMALL
GAST_HUCK


@<TRIPOS>ATOM
      1 C1          7.0370   -7.5740   32.4270 C.ar      1 FRM        -0.0648
      2 C2          7.6430   -6.3620   32.5520 C.ar      1 FRM        -0.0362
      3 C3          7.1280   -5.5140   33.4930 C.ar      1 FRM         0.0155
      4 C4          6.0830   -5.8630   34.3050 C.ar      1 FRM         0.0537
      5 C5          5.4480   -7.0710   34.2310 C.ar      1 FRM        -0.0574
      6 C6          5.9450   -7.9070   33.2540 C.ar      1 FRM        -0.0723
      7 N10         7.6270   -4.2770   33.5690 N.2       1 FRM        -0.3112
      8 C11         7.0720   -3.3030   34.2440 C.2       1 FRM         0.1407
      9 N12         6.0080   -3.5860   34.9520 N.am      1 FRM        -0.1954
     10 C13         5.6180   -4.8250   35.1480 C.2       1 FRM         0.2333
     11 O14         4.8250   -5.0650   36.0130 O.2       1 FRM        -0.3866
     12 C17         7.8290   -2.0230   34.4140 C.3       1 FRM         0.0423
     13 C20         6.9420   -0.7860   34.5150 C.3       1 FRM         0.0074
     14 C23         7.0100    0.1110   33.3230 C.3       1 FRM        -0.0275
     15 N26         8.3280    0.7270   33.3880 N.4       1 FRM         0.2479
     16 C29         9.1010    0.7190   32.1530 C.3       1 FRM        -0.0100
     17 C30         8.4580    1.6530   31.1910 C.2       1 FRM        -0.0395
     18 C31         7.7330    2.6910   31.5380 C.2       1 FRM        -0.0433
     19 C32         7.4740    2.9150   33.0090 C.3       1 FRM         0.0118
     20 C33         8.3310    2.0400   33.9090 C.3       1 FRM        -0.0239
     21 C40         7.3850    3.7690   30.6040 C.ar      1 FRM        -0.0355
     22 C42         8.0180    4.0080   29.3980 C.ar      1 FRM        -0.0611
     23 C43         7.7990    5.2390   28.8330 C.ar      1 FRM        -0.0313
     24 C44         7.0120    6.1780   29.4630 C.ar      1 FRM         0.1291
     25 C45         6.3660    5.9710   30.6270 C.ar      1 FRM        -0.0313
     26 C46         6.5260    4.7310   31.1360 C.ar      1 FRM        -0.0611
     27 C7          8.8280   -6.0100   31.7050 C.3       1 FRM        -0.0328
     28 F1          6.7170    7.3180   28.8710 F         1 FRM        -0.1858
     29 H1          7.3945   -8.2844   31.6904 H         1 FRM         0.0560
     30 H2          4.6268   -7.3471   34.8825 H         1 FRM         0.0583
     31 H3          5.4709   -8.8718   33.1142 H         1 FRM         0.0536
     32 H4          5.4781   -2.8394   35.3542 H         1 FRM         0.2525
     33 H5          8.4978   -1.8993   33.5495 H         1 FRM         0.0562
     34 H6          8.4280   -2.0950   35.3337 H         1 FRM         0.0562
     35 H7          7.2519   -0.2097   35.3992 H         1 FRM         0.0351
     36 H8          5.9004   -1.1169   34.6395 H         1 FRM         0.0351
     37 H9          6.2225    0.8775   33.3708 H         1 FRM         0.0817
     38 H10         6.9004   -0.4700   32.3954 H         1 FRM         0.0817
     39 H11         8.8454    0.1614   34.0425 H         1 FRM         0.2049
     40 H12         9.1164   -0.2966   31.7309 H         1 FRM         0.0967
     41 H13        10.1309    1.0469   32.3572 H         1 FRM         0.0967
     42 H14         8.5978    1.4633   30.1278 H         1 FRM         0.0578
     43 H15         6.4157    2.6968   33.2147 H         1 FRM         0.0436
     44 H16         7.6835    3.9689   33.2442 H         1 FRM         0.0436
     45 H17         9.3601    2.4277   33.9334 H         1 FRM         0.0834
     46 H18         7.9163    2.0364   34.9278 H         1 FRM         0.0834
     47 H19         8.6510    3.2653   28.9260 H         1 FRM         0.0580
     48 H20         8.2518    5.4762   27.8771 H         1 FRM         0.0596
     49 H21         5.7692    6.7344   31.1129 H         1 FRM         0.0596
     50 H22         5.9498    4.4656   32.0150 H         1 FRM         0.0580
     51 H23         9.0547   -6.8454   31.0263 H         1 FRM         0.0378
     52 H24         9.6966   -5.8170   32.3517 H         1 FRM         0.0378
     53 H25         8.6026   -5.1093   31.1152 H         1 FRM         0.0378
@<TRIPOS>BOND
     1    1    2 ar 
     2    1    6 ar 
     3    2    3 ar 
     4    2   27 1  
     5    3    4 ar 
     6    3    7 1  
     7    4    5 ar 
     8    4   10 1  
     9    5    6 ar 
    10    7    8 2  
    11    8    9 1  
    12    8   12 1  
    13    9   10 am 
    14   10   11 2  
    15   12   13 1  
    16   13   14 1  
    17   14   15 1  
    18   15   16 1  
    19   15   20 1  
    20   16   17 1  
    21   17   18 2  
    22   18   19 1  
    23   18   21 1  
    24   19   20 1  
    25   21   22 ar 
    26   21   26 ar 
    27   22   23 ar 
    28   23   24 ar 
    29   24   25 ar 
    30   24   28 1  
    31   25   26 ar 
    32    1   29 1  
    33    5   30 1  
    34    6   31 1  
    35    9   32 1  
    36   12   33 1  
    37   12   34 1  
    38   13   35 1  
    39   13   36 1  
    40   14   37 1  
    41   14   38 1  
    42   15   39 1  
    43   16   40 1  
    44   16   41 1  
    45   17   42 1  
    46   19   43 1  
    47   19   44 1  
    48   20   45 1  
    49   20   46 1  
    50   22   47 1  
    51   23   48 1  
    52   25   49 1  
    53   26   50 1  
    54   27   51 1  
    55   27   52 1  
    56   27   53 1  
@<TRIPOS>SUBSTRUCTURE
     1 FRM         1

