### 
### Created by X-TOOL on Mon Sep 10 21:12:52 2018
### 

@<TRIPOS>MOLECULE
1uk1_ligand
   54    57     1     0     0
SMALL
GAST_HUCK


@<TRIPOS>ATOM
      1 C1          7.6140   -7.7970   32.1870 C.ar      1 FRQ        -0.0726
      2 C2          8.1890   -6.5390   32.2300 C.ar      1 FRQ        -0.0384
      3 C3          7.6850   -5.5770   33.0970 C.ar      1 FRQ         0.0914
      4 C4          6.5890   -5.8690   33.8730 C.ar      1 FRQ         0.1085
      5 C5          6.0230   -7.0990   33.8040 C.ar      1 FRQ         0.1412
      6 C6          6.5240   -8.0790   32.9930 C.ar      1 FRQ        -0.0374
      7 N10         8.2480   -4.3570   33.2710 N.am      1 FRQ        -0.1960
      8 C11         7.7040   -3.4420   34.0540 C.2       1 FRQ         0.3215
      9 N12         6.6400   -3.7060   34.7200 N.am      1 FRQ        -0.1817
     10 C13         6.0480   -4.8680   34.7540 C.2       1 FRQ         0.2223
     11 O14         5.1070   -5.0400   35.5180 O.2       1 FRQ        -0.3887
     12 O15         8.2020   -2.3610   34.1990 O.2       1 FRQ        -0.3835
     13 C16         9.5310   -4.0410   32.7140 C.3       1 FRQ         0.0592
     14 C17         9.3860   -3.4660   31.3230 C.3       1 FRQ        -0.0222
     15 C20         8.9980   -2.0130   31.2620 C.3       1 FRQ        -0.0102
     16 C23         9.4010   -1.4750   29.8970 C.3       1 FRQ        -0.0303
     17 N26         9.0110   -0.0870   29.7140 N.4       1 FRQ         0.2481
     18 C29         8.6410    0.7200   30.8850 C.3       1 FRQ        -0.0088
     19 C30         8.4270    2.1540   30.5010 C.2       1 FRQ        -0.0372
     20 C31         8.5790    2.6760   29.2750 C.2       1 FRQ        -0.0404
     21 C32         8.9560    1.7710   28.1380 C.3       1 FRQ         0.0123
     22 C33         8.4970    0.3440   28.4150 C.3       1 FRQ        -0.0239
     23 C40         8.2340    4.0760   29.0770 C.ar      1 FRQ        -0.0322
     24 C42         8.4500    4.9790   30.1090 C.ar      1 FRQ        -0.0600
     25 C43         8.0450    6.2940   29.9790 C.ar      1 FRQ        -0.0656
     26 C44         7.4740    6.7300   28.8000 C.ar      1 FRQ        -0.0657
     27 C45         7.3110    5.8440   27.7390 C.ar      1 FRQ        -0.0656
     28 C46         7.6690    4.5130   27.8910 C.ar      1 FRQ        -0.0600
     29 F53         4.9480   -7.3330   34.5090 F         1 FRQ        -0.1814
     30 H1          8.0146   -8.5572   31.5262 H         1 FRQ         0.0604
     31 H2          9.0309   -6.3045   31.5887 H         1 FRQ         0.0483
     32 H3          6.0734   -9.0648   32.9811 H         1 FRQ         0.0490
     33 H4          6.2333   -2.9646   35.2538 H         1 FRQ         0.2262
     34 H5         10.1379   -4.9570   32.6640 H         1 FRQ         0.0592
     35 H6         10.0322   -3.3038   33.3584 H         1 FRQ         0.0592
     36 H7          8.6145   -4.0456   30.7949 H         1 FRQ         0.0292
     37 H8         10.3499   -3.5818   30.8058 H         1 FRQ         0.0292
     38 H9          9.5200   -1.4538   32.0524 H         1 FRQ         0.0318
     39 H10         7.9111   -1.9109   31.3973 H         1 FRQ         0.0318
     40 H11         8.9164   -2.0840   29.1196 H         1 FRQ         0.0815
     41 H12        10.4936   -1.5518   29.7950 H         1 FRQ         0.0815
     42 H13         9.9433    0.2801   29.6039 H         1 FRQ         0.2050
     43 H14         9.4476    0.6635   31.6308 H         1 FRQ         0.0972
     44 H15         7.7122    0.3209   31.3185 H         1 FRQ         0.0972
     45 H16         8.1191    2.8357   31.2925 H         1 FRQ         0.0600
     46 H17        10.0489    1.7818   28.0141 H         1 FRQ         0.0436
     47 H18         8.4787    2.1317   27.2149 H         1 FRQ         0.0436
     48 H19         7.3977    0.3073   28.4246 H         1 FRQ         0.0834
     49 H20         8.8794   -0.3237   27.6289 H         1 FRQ         0.0834
     50 H21         8.9380    4.6516   31.0199 H         1 FRQ         0.0587
     51 H22         8.1759    6.9844   30.8044 H         1 FRQ         0.0607
     52 H23         7.1532    7.7607   28.7008 H         1 FRQ         0.0584
     53 H24         6.9053    6.1935   26.7965 H         1 FRQ         0.0607
     54 H25         7.5061    3.8131   27.0794 H         1 FRQ         0.0587
@<TRIPOS>BOND
     1    1    2 ar 
     2    1    6 ar 
     3    2    3 ar 
     4    3    4 ar 
     5    3    7 1  
     6    4    5 ar 
     7    4   10 1  
     8    5    6 ar 
     9    5   29 1  
    10    7    8 am 
    11    7   13 1  
    12    8    9 am 
    13    8   12 2  
    14    9   10 am 
    15   10   11 2  
    16   13   14 1  
    17   14   15 1  
    18   15   16 1  
    19   16   17 1  
    20   17   18 1  
    21   17   22 1  
    22   18   19 1  
    23   19   20 2  
    24   20   21 1  
    25   20   23 1  
    26   21   22 1  
    27   23   24 ar 
    28   23   28 ar 
    29   24   25 ar 
    30   25   26 ar 
    31   26   27 ar 
    32   27   28 ar 
    33    1   30 1  
    34    2   31 1  
    35    6   32 1  
    36    9   33 1  
    37   13   34 1  
    38   13   35 1  
    39   14   36 1  
    40   14   37 1  
    41   15   38 1  
    42   15   39 1  
    43   16   40 1  
    44   16   41 1  
    45   17   42 1  
    46   18   43 1  
    47   18   44 1  
    48   19   45 1  
    49   21   46 1  
    50   21   47 1  
    51   22   48 1  
    52   22   49 1  
    53   24   50 1  
    54   25   51 1  
    55   26   52 1  
    56   27   53 1  
    57   28   54 1  
@<TRIPOS>SUBSTRUCTURE
     1 FRQ         1

