### 
### Created by X-TOOL on Mon Sep 10 21:12:51 2018
### 

@<TRIPOS>MOLECULE
1ukt_ligand
   88    91     1     0     0
SMALL
GAST_HUCK


@<TRIPOS>ATOM
      1 C1         47.8770   51.3150   20.5620 C.3       1 ACI         0.0141
      2 C2         49.2710   50.7390   20.7620 C.3       1 ACI         0.1303
      3 C3         49.6050   50.7190   22.2440 C.3       1 ACI         0.1215
      4 C4         49.7690   52.1540   22.7350 C.3       1 ACI         0.1112
      5 C5         48.5170   52.9900   22.4500 C.2       1 ACI        -0.0200
      6 C6         48.1250   54.2160   23.2730 C.3       1 ACI         0.0719
      7 C7         47.6400   52.6100   21.3920 C.2       1 ACI        -0.0543
      8 N1         46.8940   50.2690   20.8450 N.4       1 ACI         0.2433
      9 O2         49.3240   49.4140   20.2450 O.3       1 ACI        -0.3821
     10 O3         50.8150   50.0050   22.4300 O.3       1 ACI        -0.3843
     11 O4         50.0660   52.1610   24.1290 O.3       1 ACI        -0.3780
     12 O6         48.4780   54.0360   24.6360 O.3       1 ACI        -0.3839
     13 C1         42.6390   51.0570   21.2370 C.3       1 GLD         0.1886
     14 C2         43.5740   52.0900   20.5840 C.3       1 GLD         0.1370
     15 C3         44.8120   51.3610   20.0300 C.3       1 GLD         0.1304
     16 C4         45.5900   50.8030   21.2320 C.3       1 GLD         0.0341
     17 C5         44.7380   49.7010   21.8780 C.3       1 GLD         0.1038
     18 C6         45.3700   49.2360   23.1990 C.3       1 GLD        -0.0332
     19 O2         42.8920   52.7520   19.5280 O.3       1 GLD        -0.3840
     20 O3         45.6220   52.2420   19.2480 O.3       1 GLD        -0.3834
     21 O5         43.3940   50.1890   22.1290 O.3       1 GLD        -0.3401
     22 C1         40.8420   46.6580   22.0040 C.3       1 GLC         0.1884
     23 C2         41.5610   46.6840   20.6630 C.3       1 GLC         0.1341
     24 C3         42.3250   47.9820   20.5220 C.3       1 GLC         0.1144
     25 C4         41.3150   49.1180   20.4910 C.3       1 GLC         0.1184
     26 C5         40.5090   49.1560   21.7970 C.3       1 GLC         0.1134
     27 C6         39.3370   50.1360   21.6550 C.3       1 GLC         0.0730
     28 O2         42.4440   45.5890   20.5140 O.3       1 GLC        -0.3841
     29 O3         43.0720   47.9610   19.3080 O.3       1 GLC        -0.3864
     30 O4         41.9550   50.3620   20.1840 O.3       1 GLC        -0.3401
     31 O5         39.9920   47.8280   22.0830 O.3       1 GLC        -0.3405
     32 O6         38.5440   50.0990   22.8370 O.3       1 GLC        -0.3924
     33 C1         41.9200   42.4520   23.9250 C.3       1 GAL         0.1854
     34 C2         41.1370   43.3880   24.8570 C.3       1 GAL         0.1339
     35 C3         40.7520   44.6230   24.0580 C.3       1 GAL         0.1144
     36 C4         42.0450   45.3540   23.6880 C.3       1 GAL         0.1184
     37 C5         42.9390   44.4450   22.8160 C.3       1 GAL         0.1134
     38 C6         44.3320   45.0770   22.5890 C.3       1 GAL         0.0730
     39 O1         42.2740   41.2560   24.6080 O.3       1 GAL        -0.3649
     40 O2         39.9730   42.7570   25.3690 O.3       1 GAL        -0.3841
     41 O3         39.9090   45.4600   24.8380 O.3       1 GAL        -0.3864
     42 O4         41.7950   46.6310   23.0720 O.3       1 GAL        -0.3401
     43 O5         43.0910   43.1460   23.4440 O.3       1 GAL        -0.3407
     44 O6         44.9300   45.4770   23.8190 O.3       1 GAL        -0.3924
     45 H1         47.7764   51.5908   19.5019 H         1 ACI         0.0950
     46 H2         50.0030   51.3659   20.2317 H         1 ACI         0.0694
     47 H3         48.7952   50.2272   22.8029 H         1 ACI         0.0671
     48 H4         50.6142   52.6079   22.1968 H         1 ACI         0.0769
     49 H5         47.0383   54.3694   23.1982 H         1 ACI         0.0706
     50 H6         48.6481   55.0992   22.8777 H         1 ACI         0.0706
     51 H7         46.7837   53.2411   21.1591 H         1 ACI         0.0299
     52 H8         47.2424   49.6952   21.5969 H         1 ACI         0.2029
     53 H9         46.7777   49.7048   20.0179 H         1 ACI         0.2029
     54 H10        50.1977   49.0619   20.3683 H         1 ACI         0.2103
     55 H11        50.7055   49.1129   22.1222 H         1 ACI         0.2102
     56 H12        50.2186   53.0541   24.4147 H         1 ACI         0.2130
     57 H13        49.4165   53.9059   24.7044 H         1 ACI         0.2125
     58 H14        41.8886   51.5866   21.8423 H         1 ACI         0.0938
     59 H15        43.8882   52.8293   21.3354 H         1 ACI         0.0672
     60 H16        44.4866   50.5272   19.3905 H         1 ACI         0.0679
     61 H17        45.7480   51.6126   21.9597 H         1 ACI         0.0903
     62 H18        44.6844   48.8456   21.1885 H         1 ACI         0.0652
     63 H19        44.7466   48.4478   23.6462 H         1 ACI         0.0257
     64 H20        45.4382   50.0871   23.8925 H         1 ACI         0.0257
     65 H21        46.3776   48.8401   23.0041 H         1 ACI         0.0257
     66 H22        42.6173   52.1134   18.8805 H         1 ACI         0.2101
     67 H23        45.1147   52.5696   18.5147 H         1 ACI         0.2102
     68 H24        40.2174   45.7547   22.0655 H         1 ACI         0.0938
     69 H25        40.8061   46.6294   19.8648 H         1 ACI         0.0671
     70 H26        43.0085   48.1116   21.3741 H         1 ACI         0.0648
     71 H27        40.6047   48.9105   19.6771 H         1 ACI         0.0651
     72 H28        41.1614   49.4819   22.6205 H         1 ACI         0.0647
     73 H29        38.7207   49.8484   20.7905 H         1 ACI         0.0584
     74 H30        39.7259   51.1541   21.5057 H         1 ACI         0.0584
     75 H31        42.8483   45.6242   19.6550 H         1 ACI         0.2101
     76 H32        43.7000   47.2487   19.3362 H         1 ACI         0.2100
     77 H33        38.2090   49.2193   22.9648 H         1 ACI         0.2095
     78 H34        41.2854   42.1890   23.0659 H         1 ACI         0.0935
     79 H35        41.7803   43.6814   25.6996 H         1 ACI         0.0671
     80 H36        40.2197   44.3248   23.1427 H         1 ACI         0.0648
     81 H37        42.5900   45.5508   24.6230 H         1 ACI         0.0651
     82 H38        42.4518   44.3115   21.8389 H         1 ACI         0.0647
     83 H39        44.2231   45.9591   21.9409 H         1 ACI         0.0584
     84 H40        44.9836   44.3393   22.0979 H         1 ACI         0.0584
     85 H41        41.4860   40.8215   24.9125 H         1 ACI         0.2126
     86 H42        39.5084   43.3628   25.9343 H         1 ACI         0.2101
     87 H43        39.1132   44.9898   25.0574 H         1 ACI         0.2100
     88 H44        45.7818   45.8601   23.6458 H         1 ACI         0.2095
@<TRIPOS>BOND
     1    1    2 1  
     2    1    7 1  
     3    8    1 1  
     4    2    3 1  
     5    2    9 1  
     6    3    4 1  
     7    3   10 1  
     8    5    4 1  
     9    4   11 1  
    10    5    6 1  
    11    7    5 2  
    12    6   12 1  
    13   16    8 1  
    14   13   14 1  
    15   13   21 1  
    16   30   13 1  
    17   14   15 1  
    18   14   19 1  
    19   15   16 1  
    20   15   20 1  
    21   17   16 1  
    22   17   18 1  
    23   21   17 1  
    24   22   23 1  
    25   22   31 1  
    26   42   22 1  
    27   23   24 1  
    28   23   28 1  
    29   24   25 1  
    30   24   29 1  
    31   26   25 1  
    32   25   30 1  
    33   26   27 1  
    34   31   26 1  
    35   27   32 1  
    36   34   33 1  
    37   33   39 1  
    38   33   43 1  
    39   35   34 1  
    40   34   40 1  
    41   36   35 1  
    42   35   41 1  
    43   36   37 1  
    44   36   42 1  
    45   37   38 1  
    46   37   43 1  
    47   38   44 1  
    48    1   45 1  
    49    2   46 1  
    50    3   47 1  
    51    4   48 1  
    52    6   49 1  
    53    6   50 1  
    54    7   51 1  
    55    8   52 1  
    56    8   53 1  
    57    9   54 1  
    58   10   55 1  
    59   11   56 1  
    60   12   57 1  
    61   13   58 1  
    62   14   59 1  
    63   15   60 1  
    64   16   61 1  
    65   17   62 1  
    66   18   63 1  
    67   18   64 1  
    68   18   65 1  
    69   19   66 1  
    70   20   67 1  
    71   22   68 1  
    72   23   69 1  
    73   24   70 1  
    74   25   71 1  
    75   26   72 1  
    76   27   73 1  
    77   27   74 1  
    78   28   75 1  
    79   29   76 1  
    80   32   77 1  
    81   33   78 1  
    82   34   79 1  
    83   35   80 1  
    84   36   81 1  
    85   37   82 1  
    86   38   83 1  
    87   38   84 1  
    88   39   85 1  
    89   40   86 1  
    90   41   87 1  
    91   44   88 1  
@<TRIPOS>SUBSTRUCTURE
     1 ACI         1

