### 
### Created by X-TOOL on Sun Sep  9 21:50:07 2018
### 

@<TRIPOS>MOLECULE
1ule_ligand
   72    74     1     0     0
SMALL
GAST_HUCK


@<TRIPOS>ATOM
      1 C1         38.7030   14.5150   32.4830 C.3       1 NON         0.1884
      2 C2         38.3890   15.2860   33.7630 C.3       1 NON         0.1341
      3 C3         36.9560   15.8200   33.7120 C.3       1 NON         0.1141
      4 C4         36.7560   16.6610   32.4480 C.3       1 NON         0.1119
      5 C5         37.1170   15.8290   31.2130 C.3       1 NON         0.1130
      6 C6         37.0410   16.6260   29.9210 C.3       1 NON         0.0730
      7 O2         38.5340   14.4240   34.8810 O.3       1 NON        -0.3841
      8 O3         36.7070   16.6140   34.8610 O.3       1 NON        -0.3864
      9 O4         37.5900   17.8090   32.5110 O.3       1 NON        -0.3865
     10 O5         38.4700   15.3340   31.3330 O.3       1 NON        -0.3405
     11 O6         37.2670   15.7930   28.7920 O.3       1 NON        -0.3924
     12 C1         36.9660   10.8190   29.8670 C.3       1 NON         0.1884
     13 C2         36.8270   11.6740   31.1130 C.3       1 NON         0.1345
     14 C3         38.0500   12.5720   31.2450 C.3       1 NON         0.1206
     15 C4         39.3370   11.7350   31.2400 C.3       1 NON         0.1123
     16 C5         39.3600   10.8400   29.9940 C.3       1 NON         0.1130
     17 C6         40.5370    9.8950   29.9690 C.3       1 NON         0.0730
     18 O2         35.6520   12.4650   31.0020 O.3       1 NON        -0.3841
     19 O3         37.9560   13.3310   32.4610 O.3       1 NON        -0.3401
     20 O4         39.4090   10.9370   32.4130 O.3       1 NON        -0.3865
     21 O5         38.1650   10.0290   29.9350 O.3       1 NON        -0.3405
     22 O6         40.5700    9.1630   28.7530 O.3       1 NON        -0.3924
     23 C1         33.9100    7.8150   26.8560 C.3       1 NON         0.1823
     24 C2         35.0110    7.0550   27.6000 C.3       1 NON         0.1208
     25 C3         35.3300    7.8060   28.8920 C.3       1 NON         0.1114
     26 C4         35.7180    9.2480   28.5660 C.3       1 NON         0.1181
     27 C5         34.6240    9.9200   27.7190 C.3       1 NON         0.1133
     28 C6         34.9730   11.3270   27.2620 C.3       1 NON         0.0730
     29 C7         35.0020    4.6910   27.1340 C.2       1 NON         0.1733
     30 C8         34.6250    3.2820   27.5760 C.3       1 NON         0.0257
     31 N2         34.5790    5.7020   27.8890 N.am      1 NON        -0.2766
     32 O1         33.6260    7.1670   25.6690 O.3       1 NON        -0.3651
     33 O3         36.3940    7.1690   29.5860 O.3       1 NON        -0.3867
     34 O4         35.8840    9.9670   29.7950 O.3       1 NON        -0.3401
     35 O5         34.3660    9.1390   26.5390 O.3       1 NON        -0.3409
     36 O6         36.2320   11.3670   26.6050 O.3       1 NON        -0.3924
     37 O7         35.6760    4.8520   26.1170 O.2       1 NON        -0.3974
     38 H1         39.7692   14.2446   32.4924 H         1 NON         0.0938
     39 H2         39.0879   16.1299   33.8598 H         1 NON         0.0671
     40 H3         36.2541   14.9732   33.6970 H         1 NON         0.0648
     41 H4         35.7043   16.9761   32.3807 H         1 NON         0.0647
     42 H5         36.4197   14.9806   31.1499 H         1 NON         0.0647
     43 H6         37.8044   17.4177   29.9418 H         1 NON         0.0584
     44 H7         36.0430   17.0810   29.8377 H         1 NON         0.0584
     45 H8         38.3470   14.9064   35.6777 H         1 NON         0.2101
     46 H9         37.3089   17.3489   34.8732 H         1 NON         0.2100
     47 H10        38.4983   17.5364   32.5683 H         1 NON         0.2100
     48 H11        36.6077   15.1093   28.7672 H         1 NON         0.2095
     49 H12        36.9973   11.4643   28.9767 H         1 NON         0.0938
     50 H13        36.7510   11.0266   31.9991 H         1 NON         0.0671
     51 H14        38.0764   13.2657   30.3918 H         1 NON         0.0651
     52 H15        40.2047   12.4106   31.2140 H         1 NON         0.0647
     53 H16        39.4055   11.4880   29.1063 H         1 NON         0.0647
     54 H17        40.4531    9.1920   30.8109 H         1 NON         0.0584
     55 H18        41.4669   10.4745   30.0664 H         1 NON         0.0584
     56 H19        35.5610   13.0054   31.7779 H         1 NON         0.2101
     57 H20        39.3942   11.4993   33.1786 H         1 NON         0.2100
     58 H21        39.7696    8.6585   28.6665 H         1 NON         0.2095
     59 H22        33.0073    7.8678   27.4824 H         1 NON         0.0932
     60 H23        35.9133    7.0143   26.9721 H         1 NON         0.0633
     61 H24        34.4364    7.8096   29.5335 H         1 NON         0.0645
     62 H25        36.6643    9.2538   28.0053 H         1 NON         0.0650
     63 H26        33.7089    9.9696   28.3273 H         1 NON         0.0647
     64 H27        35.0074   11.9891   28.1397 H         1 NON         0.0584
     65 H28        34.1966   11.6794   26.5671 H         1 NON         0.0584
     66 H29        35.0380    2.5517   26.8645 H         1 NON         0.0467
     67 H30        33.5295    3.1873   27.6041 H         1 NON         0.0467
     68 H31        35.0355    3.0899   28.5783 H         1 NON         0.0467
     69 H32        33.9623    5.5280   28.6567 H         1 NON         0.1857
     70 H33        34.4114    7.1257   25.1363 H         1 NON         0.2126
     71 H34        37.1721    7.1708   29.0409 H         1 NON         0.2100
     72 H35        36.9087   11.0685   27.2012 H         1 NON         0.2095
@<TRIPOS>BOND
     1    1    2 1  
     2    1   10 1  
     3   19    1 1  
     4    2    3 1  
     5    2    7 1  
     6    3    4 1  
     7    3    8 1  
     8    5    4 1  
     9    4    9 1  
    10    5    6 1  
    11   10    5 1  
    12    6   11 1  
    13   12   13 1  
    14   12   21 1  
    15   34   12 1  
    16   13   14 1  
    17   13   18 1  
    18   14   15 1  
    19   14   19 1  
    20   16   15 1  
    21   15   20 1  
    22   16   17 1  
    23   21   16 1  
    24   17   22 1  
    25   24   23 1  
    26   23   32 1  
    27   23   35 1  
    28   24   25 1  
    29   31   24 1  
    30   25   26 1  
    31   25   33 1  
    32   26   27 1  
    33   26   34 1  
    34   27   28 1  
    35   35   27 1  
    36   28   36 1  
    37   29   30 1  
    38   29   31 am 
    39   29   37 2  
    40    1   38 1  
    41    2   39 1  
    42    3   40 1  
    43    4   41 1  
    44    5   42 1  
    45    6   43 1  
    46    6   44 1  
    47    7   45 1  
    48    8   46 1  
    49    9   47 1  
    50   11   48 1  
    51   12   49 1  
    52   13   50 1  
    53   14   51 1  
    54   15   52 1  
    55   16   53 1  
    56   17   54 1  
    57   17   55 1  
    58   18   56 1  
    59   20   57 1  
    60   22   58 1  
    61   23   59 1  
    62   24   60 1  
    63   25   61 1  
    64   26   62 1  
    65   27   63 1  
    66   28   64 1  
    67   28   65 1  
    68   30   66 1  
    69   30   67 1  
    70   30   68 1  
    71   31   69 1  
    72   32   70 1  
    73   33   71 1  
    74   36   72 1  
@<TRIPOS>SUBSTRUCTURE
     1 NON         1

