### 
### Created by X-TOOL on Sun Sep  9 21:50:10 2018
### 

@<TRIPOS>MOLECULE
1ulg_ligand
   51    52     1     0     0
SMALL
GAST_HUCK


@<TRIPOS>ATOM
      1 C1        -33.8070  -20.4010  -17.0060 C.3       1 NON         0.1884
      2 C2        -33.1600  -21.2000  -15.8670 C.3       1 NON         0.1341
      3 C3        -34.1960  -21.4830  -14.7750 C.3       1 NON         0.1141
      4 C4        -34.8490  -20.1780  -14.3190 C.3       1 NON         0.1119
      5 C5        -35.4340  -19.4450  -15.5270 C.3       1 NON         0.1130
      6 C6        -36.0340  -18.1030  -15.1540 C.3       1 NON         0.0730
      7 O2        -32.6480  -22.4250  -16.3730 O.3       1 NON        -0.3841
      8 O3        -33.5710  -22.1150  -13.6690 O.3       1 NON        -0.3864
      9 O4        -33.8770  -19.3570  -13.6880 O.3       1 NON        -0.3865
     10 O5        -34.3980  -19.1940  -16.5020 O.3       1 NON        -0.3405
     11 O6        -36.3090  -17.3230  -16.3080 O.3       1 NON        -0.3924
     12 C1        -32.4550  -19.7700  -21.6780 C.3       1 NON         0.1823
     13 C2        -32.0000  -20.0460  -20.2320 C.3       1 NON         0.1211
     14 C3        -33.2190  -20.2470  -19.3260 C.3       1 NON         0.1176
     15 C4        -34.3220  -19.2670  -19.7220 C.3       1 NON         0.1120
     16 C5        -34.8070  -19.5970  -21.1440 C.3       1 NON         0.1130
     17 C6        -36.0360  -20.4950  -21.1390 C.3       1 NON         0.0730
     18 C7        -29.9340  -21.2560  -20.6860 C.2       1 NON         0.1733
     19 C8        -29.3630  -19.9860  -21.3140 C.3       1 NON         0.0257
     20 N2        -31.1740  -21.2430  -20.1920 N.am      1 NON        -0.2766
     21 O1        -32.4840  -18.4030  -21.9070 O.3       1 NON        -0.3651
     22 O3        -32.8480  -20.0500  -17.9450 O.3       1 NON        -0.3403
     23 O4        -33.8080  -17.9430  -19.6950 O.3       1 NON        -0.3865
     24 O5        -33.7770  -20.2920  -21.9010 O.3       1 NON        -0.3410
     25 O6        -36.7300  -20.4280  -19.8990 O.3       1 NON        -0.3924
     26 O7        -29.2350  -22.2670  -20.6510 O.2       1 NON        -0.3974
     27 H1        -34.5824  -21.0181  -17.4834 H         1 NON         0.0938
     28 H2        -32.3346  -20.6131  -15.4377 H         1 NON         0.0671
     29 H3        -34.9710  -22.1502  -15.1803 H         1 NON         0.0648
     30 H4        -35.6547  -20.4037  -13.6049 H         1 NON         0.0647
     31 H5        -36.2157  -20.0765  -15.9744 H         1 NON         0.0647
     32 H6        -35.3242  -17.5584  -14.5141 H         1 NON         0.0584
     33 H7        -36.9711  -18.2701  -14.6027 H         1 NON         0.0584
     34 H8        -32.0063  -22.2433  -17.0496 H         1 NON         0.2101
     35 H9        -32.9072  -21.5381  -13.3097 H         1 NON         0.2100
     36 H10       -34.2853  -18.5490  -13.4002 H         1 NON         0.2100
     37 H11       -35.5022  -17.1718  -16.7863 H         1 NON         0.2095
     38 H12       -31.7504  -20.2467  -22.3754 H         1 NON         0.0932
     39 H13       -31.4150  -19.1883  -19.8686 H         1 NON         0.0633
     40 H14       -33.5921  -21.2742  -19.4510 H         1 NON         0.0649
     41 H15       -35.1617  -19.3512  -19.0165 H         1 NON         0.0647
     42 H16       -35.0547  -18.6526  -21.6507 H         1 NON         0.0647
     43 H17       -35.7196  -21.5337  -21.3150 H         1 NON         0.0584
     44 H18       -36.7138  -20.1766  -21.9447 H         1 NON         0.0584
     45 H19       -28.3385  -20.1791  -21.6649 H         1 NON         0.0467
     46 H20       -29.3482  -19.1810  -20.5645 H         1 NON         0.0467
     47 H21       -29.9910  -19.6833  -22.1649 H         1 NON         0.0467
     48 H22       -31.5447  -22.0773  -19.7840 H         1 NON         0.1857
     49 H23       -33.1010  -17.9961  -21.3101 H         1 NON         0.2126
     50 H24       -33.0812  -17.8742  -20.3029 H         1 NON         0.2100
     51 H25       -37.4888  -20.9987  -19.9308 H         1 NON         0.2095
@<TRIPOS>BOND
     1    1    2 1  
     2    1   10 1  
     3   22    1 1  
     4    2    3 1  
     5    2    7 1  
     6    3    4 1  
     7    3    8 1  
     8    5    4 1  
     9    4    9 1  
    10    5    6 1  
    11   10    5 1  
    12    6   11 1  
    13   13   12 1  
    14   12   21 1  
    15   12   24 1  
    16   13   14 1  
    17   20   13 1  
    18   14   15 1  
    19   14   22 1  
    20   15   16 1  
    21   15   23 1  
    22   16   17 1  
    23   24   16 1  
    24   17   25 1  
    25   18   19 1  
    26   18   20 am 
    27   18   26 2  
    28    1   27 1  
    29    2   28 1  
    30    3   29 1  
    31    4   30 1  
    32    5   31 1  
    33    6   32 1  
    34    6   33 1  
    35    7   34 1  
    36    8   35 1  
    37    9   36 1  
    38   11   37 1  
    39   12   38 1  
    40   13   39 1  
    41   14   40 1  
    42   15   41 1  
    43   16   42 1  
    44   17   43 1  
    45   17   44 1  
    46   19   45 1  
    47   19   46 1  
    48   19   47 1  
    49   20   48 1  
    50   21   49 1  
    51   23   50 1  
    52   25   51 1  
@<TRIPOS>SUBSTRUCTURE
     1 NON         1

