### 
### Created by X-TOOL on Mon Sep 10 21:12:52 2018
### 

@<TRIPOS>MOLECULE
1uml_ligand
   60    63     1     0     0
SMALL
GAST_HUCK


@<TRIPOS>ATOM
      1 C1         51.8290   54.6770   20.8590 C.2       1 FR4         0.0642
      2 N2         51.8880   55.6880   21.9190 N.pl3     1 FR4        -0.2369
      3 C3         51.8600   55.1000   23.1260 C.2       1 FR4         0.1035
      4 N4         51.7790   53.7750   22.9620 N.2       1 FR4        -0.3095
      5 C5         51.7350   53.5200   21.5290 C.2       1 FR4         0.0902
      6 C8         51.6070   52.1810   20.9160 C.2       1 FR4         0.1892
      7 O9         51.3610   52.1210   19.7260 O.2       1 FR4        -0.3981
      8 N10        51.7490   51.0960   21.6820 N.am      1 FR4        -0.3040
      9 C13        51.9880   57.1300   21.7230 C.3       1 FR4         0.0975
     10 C14        53.4550   57.5680   21.5660 C.3       1 FR4         0.0758
     11 O15        54.2510   57.2110   22.6660 O.3       1 FR4        -0.3918
     12 C18        51.1060   57.6310   20.5640 C.3       1 FR4         0.0073
     13 C19        49.6510   57.1520   20.6020 C.3       1 FR4         0.0529
     14 N22        49.0410   57.3030   19.2790 N.pl3     1 FR4        -0.2726
     15 C27        48.5480   58.4350   18.7040 C.2       1 FR4         0.0169
     16 C28        48.0910   58.1640   17.4100 C.2       1 FR4        -0.0726
     17 C29        48.3220   56.7580   17.2020 C.ar      1 FR4        -0.0393
     18 C30        48.9180   56.2500   18.3940 C.ar      1 FR4         0.0518
     19 C31        48.0750   55.9260   16.1420 C.ar      1 FR4        -0.0827
     20 C32        48.4170   54.5770   16.2390 C.ar      1 FR4        -0.0536
     21 C33        49.0150   54.0720   17.4080 C.ar      1 FR4         0.0531
     22 C34        49.2570   54.9300   18.4840 C.ar      1 FR4        -0.0247
     23 N1         49.3960   52.7740   17.5440 N.am      1 FR4        -0.2391
     24 C2         49.1610   51.7710   16.6630 C.2       1 FR4         0.2041
     25 O1         48.5250   51.8600   15.6130 O.2       1 FR4        -0.3853
     26 C4         49.8040   50.4740   17.1270 C.3       1 FR4         0.0525
     27 C6         49.1790   49.2540   16.4430 C.3       1 FR4        -0.0018
     28 C7         47.5840   48.9190   18.3820 C.ar      1 FR4        -0.0602
     29 C11        47.8190   48.8890   17.0080 C.ar      1 FR4        -0.0408
     30 C9         46.8090   48.4760   16.1420 C.ar      1 FR4        -0.0602
     31 C12        45.5800   48.0760   16.6460 C.ar      1 FR4        -0.0686
     32 C10        45.3560   48.0770   18.0230 C.ar      1 FR4        -0.0687
     33 C15        46.3550   48.5030   18.8860 C.ar      1 FR4        -0.0686
     34 H1         51.8553   54.8300   19.7811 H         1 FR4         0.0990
     35 H2         51.8972   55.6180   24.0832 H         1 FR4         0.1238
     36 H3         51.6646   50.1848   21.2788 H         1 FR4         0.1799
     37 H4         51.9397   51.1949   22.6587 H         1 FR4         0.1799
     38 H5         51.6067   57.6049   22.6390 H         1 FR4         0.0690
     39 H6         53.4847   58.6616   21.4511 H         1 FR4         0.0589
     40 H7         53.8688   57.0932   20.6642 H         1 FR4         0.0589
     41 H8         54.2394   56.2669   22.7707 H         1 FR4         0.2095
     42 H9         51.5541   57.2858   19.6206 H         1 FR4         0.0323
     43 H10        51.1036   58.7307   20.5880 H         1 FR4         0.0323
     44 H11        49.0888   57.7514   21.3332 H         1 FR4         0.0599
     45 H12        49.6234   56.0928   20.8974 H         1 FR4         0.0599
     46 H13        48.5144   59.4122   19.1835 H         1 FR4         0.0873
     47 H14        47.6519   58.8696   16.7063 H         1 FR4         0.0266
     48 H15        47.6187   56.3118   15.2376 H         1 FR4         0.0519
     49 H16        48.2202   53.9118   15.4060 H         1 FR4         0.0441
     50 H17        49.7137   54.5481   19.3899 H         1 FR4         0.0398
     51 H18        49.8987   52.5360   18.3751 H         1 FR4         0.2239
     52 H19        49.6709   50.3796   18.2148 H         1 FR4         0.0530
     53 H20        50.8778   50.5040   16.8902 H         1 FR4         0.0530
     54 H21        49.8542   48.3953   16.5726 H         1 FR4         0.0451
     55 H22        49.0658   49.4729   15.3710 H         1 FR4         0.0451
     56 H23        48.3578   49.2660   19.0572 H         1 FR4         0.0557
     57 H24        46.9838   48.4672   15.0722 H         1 FR4         0.0557
     58 H25        44.7932   47.7625   15.9695 H         1 FR4         0.0599
     59 H26        44.4026   47.7453   18.4180 H         1 FR4         0.0559
     60 H27        46.1781   48.5120   19.9554 H         1 FR4         0.0599
@<TRIPOS>BOND
     1    1    2 1  
     2    1    5 2  
     3    2    3 1  
     4    2    9 1  
     5    3    4 2  
     6    4    5 1  
     7    5    6 1  
     8    6    7 2  
     9    6    8 am 
    10    9   10 1  
    11    9   12 1  
    12   10   11 1  
    13   12   13 1  
    14   13   14 1  
    15   14   15 1  
    16   14   18 1  
    17   15   16 2  
    18   16   17 1  
    19   17   18 ar 
    20   17   19 ar 
    21   18   22 ar 
    22   19   20 ar 
    23   20   21 ar 
    24   21   22 ar 
    25   21   23 1  
    26   23   24 am 
    27   24   25 2  
    28   24   26 1  
    29   26   27 1  
    30   27   29 1  
    31   29   28 ar 
    32   28   33 ar 
    33   29   30 ar 
    34   30   31 ar 
    35   31   32 ar 
    36   32   33 ar 
    37    1   34 1  
    38    3   35 1  
    39    8   36 1  
    40    8   37 1  
    41    9   38 1  
    42   10   39 1  
    43   10   40 1  
    44   11   41 1  
    45   12   42 1  
    46   12   43 1  
    47   13   44 1  
    48   13   45 1  
    49   15   46 1  
    50   16   47 1  
    51   19   48 1  
    52   20   49 1  
    53   22   50 1  
    54   23   51 1  
    55   26   52 1  
    56   26   53 1  
    57   27   54 1  
    58   27   55 1  
    59   28   56 1  
    60   30   57 1  
    61   31   58 1  
    62   32   59 1  
    63   33   60 1  
@<TRIPOS>SUBSTRUCTURE
     1 FR4         1

