### 
### Created by X-TOOL on Mon Sep 10 21:12:51 2018
### 

@<TRIPOS>MOLECULE
1ung_ligand
   37    39     1     0     0
SMALL
GAST_HUCK


@<TRIPOS>ATOM
      1 OAO         0.9860   70.0120    1.0710 O.3       1 ALH        -0.3323
      2 CAN         1.8070   69.0080    0.9370 C.ar      1 ALH         0.0888
      3 CAU         2.3790   68.3990    2.0550 C.ar      1 ALH        -0.0323
      4 CAT         3.2490   67.3160    1.9140 C.ar      1 ALH        -0.0608
      5 CAM         3.5520   66.8900    0.6280 C.ar      1 ALH        -0.0064
      6 CAE         2.9860   67.5350   -0.4940 C.ar      1 ALH        -0.0608
      7 CAF         2.1080   68.5970   -0.3450 C.ar      1 ALH        -0.0323
      8 CAL         4.3980   65.8360    0.3110 C.2       1 ALH         0.0685
      9 NAS         4.6370   65.4420   -0.9710 N.pl3     1 ALH        -0.2597
     10 CAR         5.4840   64.4360   -0.8390 C.ar      1 ALH         0.1603
     11 NAQ         6.0700   63.6610   -1.9000 N.ar      1 ALH        -0.2630
     12 CAJ         5.7850   64.2120    0.4800 C.ar      1 ALH         0.0758
     13 NAI         6.7000   63.1680    0.8300 N.ar      1 ALH        -0.2958
     14 CAH         7.2010   62.4310   -0.1540 C.ar      1 ALH         0.0193
     15 CAP         6.8800   62.6720   -1.4960 C.ar      1 ALH         0.0230
     16 CAK         5.0830   65.0800    1.2990 C.2       1 ALH        -0.0112
     17 CAG         5.1550   65.1990    2.8220 C.3       1 ALH        -0.0307
     18 CAD         4.3490   64.2710    3.7290 C.3       1 ALH        -0.0479
     19 CAC         5.1210   64.1220    5.0390 C.3       1 ALH        -0.0547
     20 CAB         4.5150   64.8330    6.2450 C.3       1 ALH        -0.0652
     21 H1          0.6959   70.2991    0.2131 H         1 ALH         0.2489
     22 H2          2.1448   68.7716    3.0456 H         1 ALH         0.0547
     23 H3          3.6742   66.8236    2.7811 H         1 ALH         0.0591
     24 H4          3.2431   67.1930   -1.4900 H         1 ALH         0.0591
     25 H5          1.6722   69.0884   -1.2074 H         1 ALH         0.0547
     26 H6          4.2485   65.8359   -1.8398 H         1 ALH         0.2257
     27 H7          7.8778   61.6196    0.0880 H         1 ALH         0.0819
     28 H8          7.3104   62.0227   -2.2498 H         1 ALH         0.0822
     29 H9          4.8429   66.2244    3.0694 H         1 ALH         0.0365
     30 H10         6.2115   65.0612    3.0955 H         1 ALH         0.0365
     31 H11         4.2301   63.2881    3.2497 H         1 ALH         0.0281
     32 H12         3.3578   64.7057    3.9250 H         1 ALH         0.0281
     33 H13         6.1333   64.5232    4.8830 H         1 ALH         0.0264
     34 H14         5.1839   63.0494    5.2748 H         1 ALH         0.0264
     35 H15         5.1475   64.6604    7.1283 H         1 ALH         0.0230
     36 H16         3.5057   64.4387    6.4341 H         1 ALH         0.0230
     37 H17         4.4550   65.9125    6.0423 H         1 ALH         0.0230
@<TRIPOS>BOND
     1    1    2 1  
     2    2    3 ar 
     3    2    7 ar 
     4    3    4 ar 
     5    4    5 ar 
     6    5    6 ar 
     7    5    8 1  
     8    6    7 ar 
     9    8    9 1  
    10    8   16 2  
    11    9   10 1  
    12   10   11 ar 
    13   10   12 ar 
    14   11   15 ar 
    15   12   13 ar 
    16   12   16 1  
    17   13   14 ar 
    18   14   15 ar 
    19   16   17 1  
    20   17   18 1  
    21   18   19 1  
    22   19   20 1  
    23    1   21 1  
    24    3   22 1  
    25    4   23 1  
    26    6   24 1  
    27    7   25 1  
    28    9   26 1  
    29   14   27 1  
    30   15   28 1  
    31   17   29 1  
    32   17   30 1  
    33   18   31 1  
    34   18   32 1  
    35   19   33 1  
    36   19   34 1  
    37   20   35 1  
    38   20   36 1  
    39   20   37 1  
@<TRIPOS>SUBSTRUCTURE
     1 ALH         1

