### 
### Created by X-TOOL on Mon Sep 10 21:12:52 2018
### 

@<TRIPOS>MOLECULE
1unh_ligand
   30    33     1     0     0
SMALL
GAST_HUCK


@<TRIPOS>ATOM
      1 C1         40.8530   17.9780   30.4930 C.2       1 IXM         0.0001
      2 C2         39.9810   16.8140   30.6130 C.2       1 IXM         0.1187
      3 C3         40.8110   18.5550   31.7300 C.2       1 IXM         0.0024
      4 N4         39.9990   17.8910   32.6120 N.2       1 IXM        -0.3381
      5 C5         41.5870   19.7640   31.9750 C.2       1 IXM        -0.0571
      6 C7         42.3520   20.2740   30.9110 C.2       1 IXM        -0.0699
      7 C9         42.3850   19.6630   29.6470 C.2       1 IXM        -0.0701
      8 C11        41.6400   18.4960   29.3930 C.2       1 IXM        -0.0638
      9 C13        39.4990   16.8390   31.9250 C.2       1 IXM         0.0808
     10 C14        38.6140   15.9230   32.5400 C.2       1 IXM         0.1418
     11 C15        38.2080   16.0590   33.8490 C.2       1 IXM         0.3188
     12 N16        37.3500   15.0800   34.2880 N.am      1 IXM        -0.1993
     13 C17        37.2030   14.2840   33.1850 C.ar      1 IXM         0.1176
     14 C18        37.9240   14.6840   32.0710 C.ar      1 IXM         0.0843
     15 C19        36.4560   13.2070   33.1000 C.ar      1 IXM        -0.0115
     16 C20        36.3280   12.4750   32.0270 C.ar      1 IXM        -0.0507
     17 C21        37.0590   12.8780   30.8140 C.ar      1 IXM        -0.0499
     18 C22        37.8460   13.9700   30.7940 C.ar      1 IXM        -0.0316
     19 O23        38.6660   17.0210   34.5350 O.2       1 IXM        -0.2963
     20 N24        39.7090   15.9230   29.6380 N.2       1 IXM        -0.0897
     21 O39        40.2390   16.1410   28.3650 O.2       1 IXM        -0.2751
     22 H1         41.5749   20.2548   32.9471 H         1 IXM         0.0557
     23 H2         42.9404   21.1759   31.0732 H         1 IXM         0.0585
     24 H3         42.9935   20.0967   28.8548 H         1 IXM         0.0558
     25 H4         41.6546   18.0078   28.4196 H         1 IXM         0.0584
     26 H5         36.9349   14.9750   35.1917 H         1 IXM         0.2400
     27 H6         35.9066   12.9045   33.9841 H         1 IXM         0.0581
     28 H7         35.6990   11.5921   32.0288 H         1 IXM         0.0772
     29 H8         36.9610   12.2806   29.9148 H         1 IXM         0.0576
     30 H9         38.3778   14.2941   29.9068 H         1 IXM         0.0772
@<TRIPOS>BOND
     1    1    2 2  
     2    1    3 1  
     3    1    8 1  
     4    2    9 1  
     5    2   20 1  
     6    3    4 2  
     7    3    5 1  
     8    4    9 1  
     9    5    6 2  
    10    6    7 1  
    11    7    8 2  
    12    9   10 2  
    13   10   11 1  
    14   10   14 1  
    15   11   12 am 
    16   11   19 2  
    17   12   13 1  
    18   13   14 ar 
    19   13   15 ar 
    20   14   18 ar 
    21   15   16 ar 
    22   16   17 ar 
    23   17   18 ar 
    24   20   21 2  
    25    5   22 1  
    26    6   23 1  
    27    7   24 1  
    28    8   25 1  
    29   12   26 1  
    30   15   27 1  
    31   16   28 1  
    32   17   29 1  
    33   18   30 1  
@<TRIPOS>SUBSTRUCTURE
     1 IXM         1

