### 
### Created by X-TOOL on Mon Sep 10 21:12:51 2018
### 

@<TRIPOS>MOLECULE
1unl_ligand
   52    54     1     0     0
SMALL
GAST_HUCK


@<TRIPOS>ATOM
      1 OAP        57.5260   30.7120   29.6960 O.3       1 RRC        -0.3927
      2 CAQ        58.5430   30.4700   30.6370 C.3       1 RRC         0.0673
      3 CAR        59.7790   30.0060   29.8600 C.3       1 RRC         0.0634
      4 CAK        60.9360   29.9110   30.8560 C.3       1 RRC        -0.0304
      5 CAI        61.5400   28.5300   31.0020 C.3       1 RRC        -0.0631
      6 NAS        59.3650   28.7200   29.3170 N.pl3     1 RRC        -0.2923
      7 CAT        59.1540   28.4240   28.0090 C.ar      1 RRC         0.1544
      8 NAU        58.7540   27.1700   27.6870 N.ar      1 RRC        -0.2645
      9 CAV        58.5380   26.8490   26.4000 C.ar      1 RRC         0.1424
     10 NAW        58.1300   25.6970   25.9200 N.pl3     1 RRC        -0.2248
     11 CAZ        57.8910   24.6280   26.9030 C.3       1 RRC         0.0648
     12 CAY        56.3900   24.3410   26.8940 C.3       1 RRC        -0.0349
     13 CBA        58.8760   23.5100   26.6870 C.3       1 RRC        -0.0349
     14 CAX        58.0350   25.8320   24.5670 C.2       1 RRC         0.1048
     15 CAN        58.7260   27.7150   25.3830 C.ar      1 RRC         0.0919
     16 NAO        58.4500   27.0880   24.1650 N.2       1 RRC        -0.3043
     17 NAL        59.3420   29.3060   27.0100 N.ar      1 RRC        -0.2560
     18 CAM        59.1360   28.9930   25.7240 C.ar      1 RRC         0.1222
     19 NAJ        59.2820   29.8860   24.7360 N.pl3     1 RRC        -0.2919
     20 CAD        59.3710   31.3210   24.9960 C.3       1 RRC         0.0632
     21 CAE        60.7840   31.8420   25.1170 C.ar      1 RRC        -0.0206
     22 CAG        61.1160   32.7270   26.1490 C.ar      1 RRC        -0.0584
     23 CAH        62.4230   33.2180   26.2560 C.ar      1 RRC        -0.0685
     24 CAF        63.3890   32.8540   25.3140 C.ar      1 RRC        -0.0687
     25 CAC        63.0520   31.9900   24.2700 C.ar      1 RRC        -0.0685
     26 CAB        61.7520   31.4840   24.1730 C.ar      1 RRC        -0.0584
     27 H1         56.7418   31.0026   30.1466 H         1 RRC         0.2095
     28 H2         58.2256   29.6876   31.3420 H         1 RRC         0.0580
     29 H3         58.7708   31.3925   31.1912 H         1 RRC         0.0580
     30 H4         60.0410   30.7023   29.0498 H         1 RRC         0.0581
     31 H5         60.5650   30.2276   31.8420 H         1 RRC         0.0286
     32 H6         61.7291   30.5975   30.5249 H         1 RRC         0.0286
     33 H7         62.3591   28.5637   31.7355 H         1 RRC         0.0231
     34 H8         61.9319   28.1965   30.0298 H         1 RRC         0.0231
     35 H9         60.7678   27.8266   31.3469 H         1 RRC         0.0231
     36 H10        59.2173   27.9577   29.9938 H         1 RRC         0.1849
     37 H11        58.1163   25.0274   27.9028 H         1 RRC         0.0642
     38 H12        56.1648   23.5440   27.6179 H         1 RRC         0.0259
     39 H13        56.0842   24.0192   25.8876 H         1 RRC         0.0259
     40 H14        55.8406   25.2531   27.1701 H         1 RRC         0.0259
     41 H15        58.6939   22.7135   27.4235 H         1 RRC         0.0259
     42 H16        59.8995   23.8944   26.8083 H         1 RRC         0.0259
     43 H17        58.7543   23.1051   25.6715 H         1 RRC         0.0259
     44 H18        57.6796   25.0543   23.8926 H         1 RRC         0.1309
     45 H19        59.3331   29.5507   23.7634 H         1 RRC         0.1883
     46 H20        58.8429   31.5345   25.9370 H         1 RRC         0.0689
     47 H21        58.8769   31.8527   24.1694 H         1 RRC         0.0689
     48 H22        60.3617   33.0323   26.8652 H         1 RRC         0.0557
     49 H23        62.6861   33.8820   27.0714 H         1 RRC         0.0599
     50 H24        64.3982   33.2417   25.3936 H         1 RRC         0.0559
     51 H25        63.7982   31.7115   23.5347 H         1 RRC         0.0599
     52 H26        61.4934   30.8116   23.3630 H         1 RRC         0.0557
@<TRIPOS>BOND
     1    1    2 1  
     2    2    3 1  
     3    3    4 1  
     4    3    6 1  
     5    4    5 1  
     6    6    7 1  
     7    7    8 ar 
     8    7   17 ar 
     9    8    9 ar 
    10    9   10 1  
    11    9   15 ar 
    12   10   11 1  
    13   10   14 1  
    14   11   12 1  
    15   11   13 1  
    16   14   16 2  
    17   15   16 1  
    18   15   18 ar 
    19   17   18 ar 
    20   18   19 1  
    21   19   20 1  
    22   20   21 1  
    23   21   22 ar 
    24   21   26 ar 
    25   22   23 ar 
    26   23   24 ar 
    27   24   25 ar 
    28   25   26 ar 
    29    1   27 1  
    30    2   28 1  
    31    2   29 1  
    32    3   30 1  
    33    4   31 1  
    34    4   32 1  
    35    5   33 1  
    36    5   34 1  
    37    5   35 1  
    38    6   36 1  
    39   11   37 1  
    40   12   38 1  
    41   12   39 1  
    42   12   40 1  
    43   13   41 1  
    44   13   42 1  
    45   13   43 1  
    46   14   44 1  
    47   19   45 1  
    48   20   46 1  
    49   20   47 1  
    50   22   48 1  
    51   23   49 1  
    52   24   50 1  
    53   25   51 1  
    54   26   52 1  
@<TRIPOS>SUBSTRUCTURE
     1 RRC         1

