### 
### Created by X-TOOL on Mon Sep 10 21:12:50 2018
### 

@<TRIPOS>MOLECULE
1uom_ligand
   65    69     1     0     0
SMALL
GAST_HUCK


@<TRIPOS>ATOM
      1 C3         -3.1030   53.4940   19.4140 C.3       1 PTI        -0.0318
      2 C6         -1.9600   53.8010   18.4030 C.3       1 PTI        -0.0123
      3 C9         -2.5510   54.4550   17.1200 C.3       1 PTI        -0.0434
      4 N1         -3.9320   54.7120   19.7410 N.4       1 PTI         0.2371
      5 C12        -3.3140   55.7660   17.5060 C.3       1 PTI        -0.0123
      6 C15        -4.4500   55.4410   18.5200 C.3       1 PTI        -0.0318
      7 C18        -5.0190   54.3990   20.7130 C.3       1 PTI        -0.0037
      8 C21        -4.6090   54.3590   22.2140 C.3       1 PTI         0.1086
      9 O24        -3.7250   53.2370   22.4260 O.3       1 PTI        -0.3171
     10 C25        -3.1760   52.8610   23.6760 C.ar      1 PTI         0.0845
     11 C26        -3.4350   53.5470   24.9120 C.ar      1 PTI        -0.0392
     12 C28        -2.8460   53.0890   26.1300 C.ar      1 PTI        -0.0650
     13 C30        -1.9890   51.9450   26.1420 C.ar      1 PTI        -0.0208
     14 C31        -1.7340   51.2670   24.9020 C.ar      1 PTI        -0.0650
     15 C33        -2.3210   51.7240   23.6980 C.ar      1 PTI        -0.0392
     16 C35        -1.3290   51.4190   27.4700 C.3       1 PTI         0.0927
     17 N37        -1.8570   50.0460   27.8620 N.pl3     1 PTI        -0.2862
     18 C38        -0.9350   49.0100   28.4040 C.3       1 PTI         0.0392
     19 C41         0.4420   48.9400   27.6670 C.3       1 PTI        -0.0036
     20 C44         1.0320   50.3300   27.3360 C.ar      1 PTI        -0.0436
     21 C45         0.2030   51.4910   27.2360 C.ar      1 PTI        -0.0176
     22 C46         0.8050   52.7540   26.9090 C.ar      1 PTI        -0.0713
     23 C48         2.2040   52.8580   26.6870 C.ar      1 PTI        -0.0464
     24 C50         3.0240   51.7120   26.7890 C.ar      1 PTI         0.0742
     25 C51         2.4340   50.4520   27.1110 C.ar      1 PTI        -0.0380
     26 O53         4.4020   51.7840   26.5760 O.3       1 PTI        -0.3391
     27 C55        -3.2130   49.7890   27.9000 C.ar      1 PTI         0.0437
     28 C56        -3.9470   50.1380   29.0730 C.ar      1 PTI        -0.0441
     29 C58        -5.3410   49.8980   29.1540 C.ar      1 PTI        -0.0737
     30 C60        -6.0260   49.3020   28.0590 C.ar      1 PTI        -0.0751
     31 C62        -5.3110   48.9420   26.8840 C.ar      1 PTI        -0.0737
     32 C64        -3.9130   49.1800   26.8020 C.ar      1 PTI        -0.0441
     33 H1         -2.6573   53.1114   20.3440 H         1 PTI         0.0814
     34 H2         -3.7607   52.7266   18.9797 H         1 PTI         0.0814
     35 H3         -1.4499   52.8645   18.1334 H         1 PTI         0.0317
     36 H4         -1.2392   54.4912   18.8656 H         1 PTI         0.0317
     37 H5         -3.2482   53.7534   16.6387 H         1 PTI         0.0269
     38 H6         -1.7352   54.6974   16.4230 H         1 PTI         0.0269
     39 H7         -3.3112   55.3554   20.2065 H         1 PTI         0.2034
     40 H8         -3.7505   56.2136   16.6009 H         1 PTI         0.0317
     41 H9         -2.6096   56.4764   17.9633 H         1 PTI         0.0317
     42 H10        -4.9186   56.3828   18.8415 H         1 PTI         0.0814
     43 H11        -5.2003   54.8096   18.0216 H         1 PTI         0.0814
     44 H12        -5.4296   53.4127   20.4510 H         1 PTI         0.0841
     45 H13        -5.8013   55.1639   20.5992 H         1 PTI         0.0841
     46 H14        -5.5067   54.2454   22.8394 H         1 PTI         0.0665
     47 H15        -4.0918   55.2924   22.4809 H         1 PTI         0.0665
     48 H16        -4.0813   54.4173   24.9200 H         1 PTI         0.0526
     49 H17        -3.0512   53.6148   27.0555 H         1 PTI         0.0533
     50 H18        -1.0864   50.3978   24.8881 H         1 PTI         0.0533
     51 H19        -2.1149   51.1969   22.7735 H         1 PTI         0.0526
     52 H20        -1.5836   52.1072   28.2895 H         1 PTI         0.0817
     53 H21        -1.4254   48.0294   28.3156 H         1 PTI         0.0538
     54 H22        -0.7490   49.2327   29.4650 H         1 PTI         0.0538
     55 H23         0.3065   48.3857   26.7266 H         1 PTI         0.0430
     56 H24         1.1548   48.4027   28.3099 H         1 PTI         0.0430
     57 H25         0.1835   53.6387   26.8307 H         1 PTI         0.0515
     58 H26         2.6430   53.8176   26.4391 H         1 PTI         0.0469
     59 H27         3.0637   49.5728   27.1856 H         1 PTI         0.0463
     60 H28         4.6435   52.6800   26.3728 H         1 PTI         0.2458
     61 H29        -3.4320   50.5920   29.9119 H         1 PTI         0.0515
     62 H30        -5.8859   50.1688   30.0511 H         1 PTI         0.0583
     63 H31        -7.0932   49.1223   28.1204 H         1 PTI         0.0505
     64 H32        -5.8328   48.4858   26.0505 H         1 PTI         0.0583
     65 H33        -3.3707   48.9007   25.9059 H         1 PTI         0.0515
@<TRIPOS>BOND
     1    1    2 1  
     2    1    4 1  
     3    2    3 1  
     4    3    5 1  
     5    4    6 1  
     6    4    7 1  
     7    5    6 1  
     8    7    8 1  
     9    8    9 1  
    10    9   10 1  
    11   10   11 ar 
    12   10   15 ar 
    13   11   12 ar 
    14   12   13 ar 
    15   13   14 ar 
    16   13   16 1  
    17   14   15 ar 
    18   16   17 1  
    19   16   21 1  
    20   17   18 1  
    21   17   27 1  
    22   18   19 1  
    23   19   20 1  
    24   20   21 ar 
    25   20   25 ar 
    26   21   22 ar 
    27   22   23 ar 
    28   23   24 ar 
    29   24   25 ar 
    30   24   26 1  
    31   27   28 ar 
    32   27   32 ar 
    33   28   29 ar 
    34   29   30 ar 
    35   30   31 ar 
    36   31   32 ar 
    37    1   33 1  
    38    1   34 1  
    39    2   35 1  
    40    2   36 1  
    41    3   37 1  
    42    3   38 1  
    43    4   39 1  
    44    5   40 1  
    45    5   41 1  
    46    6   42 1  
    47    6   43 1  
    48    7   44 1  
    49    7   45 1  
    50    8   46 1  
    51    8   47 1  
    52   11   48 1  
    53   12   49 1  
    54   14   50 1  
    55   15   51 1  
    56   16   52 1  
    57   18   53 1  
    58   18   54 1  
    59   19   55 1  
    60   19   56 1  
    61   22   57 1  
    62   23   58 1  
    63   25   59 1  
    64   26   60 1  
    65   28   61 1  
    66   29   62 1  
    67   30   63 1  
    68   31   64 1  
    69   32   65 1  
@<TRIPOS>SUBSTRUCTURE
     1 PTI         1

