### 
### Created by X-TOOL on Fri Nov 18 12:22:50 2016
### 

@<TRIPOS>MOLECULE
1upf_ligand
   12    12     1     0     0
SMALL
GAST_HUCK


@<TRIPOS>ATOM
      1 F5          9.8990   97.7430   45.3080 F         1 URF        -0.2165
      2 N1          8.7720   94.3980   45.9140 N.am      1 URF        -0.2073
      3 C2          9.4500   94.0250   47.0640 C.2       1 URF         0.3248
      4 N3         10.2450   94.9990   47.6100 N.am      1 URF        -0.1844
      5 C4         10.4780   96.2710   47.1010 C.2       1 URF         0.2212
      6 C5          9.7250   96.5840   45.9070 C.2       1 URF         0.1928
      7 C6          8.9340   95.6550   45.3610 C.2       1 URF         0.0823
      8 O2          9.3310   92.9390   47.6030 O.2       1 URF        -0.3832
      9 O4         11.2350   97.0530   47.6930 O.2       1 URF        -0.4071
     10 H1          8.1538   93.7455   45.4758 H         1 URF         0.2411
     11 H2         10.7070   94.7696   48.4667 H         1 URF         0.2260
     12 H3          8.3965   95.8974   44.4454 H         1 URF         0.1104
@<TRIPOS>BOND
     1    6    1 1  
     2    2    7 am 
     3    3    2 am 
     4    3    8 2  
     5    4    3 am 
     6    5    4 am 
     7    5    9 2  
     8    5    6 1  
     9    6    7 2  
    10    2   10 1  
    11    4   11 1  
    12    7   12 1  
@<TRIPOS>SUBSTRUCTURE
     1 URF         1

