### 
### Created by X-TOOL on Mon Sep 10 21:12:51 2018
### 

@<TRIPOS>MOLECULE
1upk_ligand
   74    76     1     0     0
SMALL
GAST_HUCK


@<TRIPOS>ATOM
      1 N          59.0090  -46.3590    8.2930 N.4       1 ASP         0.2391
      2 CA         59.0280  -44.8780    8.0680 C.3       1 ASP         0.0765
      3 C          59.6170  -44.5730    6.6950 C.2       1 ASP         0.2285
      4 O          60.4230  -45.3490    6.1510 O.2       1 ASP        -0.3906
      5 CB         59.8730  -44.1940    9.1430 C.3       1 ASP         0.0607
      6 CG         59.7180  -42.6870    9.1450 C.2       1 ASP         0.0425
      7 OD1        60.0290  -42.0500    8.1180 O.co2     1 ASP        -0.5686
      8 OD2        59.2830  -42.1380   10.1780 O.co2     1 ASP        -0.5686
      9 N          59.2210  -43.4420    6.1250 N.am      1 TRP        -0.2599
     10 CA         59.7440  -43.0620    4.8210 C.3       1 TRP         0.1353
     11 C          61.1570  -42.5390    5.0310 C.2       1 TRP         0.2052
     12 O          61.5210  -42.1460    6.1360 O.2       1 TRP        -0.3942
     13 CB         58.9000  -41.9460    4.1810 C.3       1 TRP         0.0042
     14 CG         57.4370  -42.2320    4.0810 C.2       1 TRP        -0.0418
     15 CD1        56.4150  -41.5340    4.6870 C.2       1 TRP         0.0167
     16 CD2        56.8110  -43.2880    3.3370 C.ar      1 TRP        -0.0214
     17 NE1        55.2060  -42.0950    4.3640 N.pl3     1 TRP        -0.2890
     18 CE2        55.4150  -43.1720    3.5430 C.ar      1 TRP         0.0603
     19 CE3        57.2910  -44.3210    2.5210 C.ar      1 TRP        -0.0747
     20 CZ2        54.4950  -44.0560    2.9640 C.ar      1 TRP        -0.0443
     21 CZ3        56.3720  -45.2020    1.9440 C.ar      1 TRP        -0.0792
     22 CH2        54.9920  -45.0600    2.1710 C.ar      1 TRP        -0.0768
     23 N          61.9520  -42.5380    3.9700 N.am      1 GLU        -0.2635
     24 CA         63.3080  -42.0120    4.0280 C.3       1 GLU         0.1324
     25 C          63.4140  -40.9520    2.9380 C.2       1 GLU         0.2036
     26 O          63.1610  -41.2320    1.7670 O.2       1 GLU        -0.3944
     27 CB         64.3130  -43.1520    3.8290 C.3       1 GLU        -0.0008
     28 CG         64.2390  -44.1360    4.9910 C.3       1 GLU         0.0044
     29 CD         65.3450  -45.1770    4.9940 C.2       1 GLU         0.0350
     30 OE1        66.3150  -45.0380    4.2010 O.co2     1 GLU        -0.5690
     31 OE2        65.2300  -46.1260    5.8030 O.co2     1 GLU        -0.5690
     32 N          63.7730  -39.7280    3.3210 N.am      1 PHE        -0.2677
     33 CA         63.8560  -38.6190    2.3570 C.3       1 PHE         0.1039
     34 C          65.2690  -38.1230    2.0670 C.2       1 PHE         0.0621
     35 O          65.5180  -37.5980    0.9450 O.co2     1 PHE        -0.5664
     36 CB         62.9880  -37.4370    2.8390 C.3       1 PHE         0.0159
     37 CG         61.5580  -37.8150    3.1440 C.ar      1 PHE        -0.0392
     38 CD1        61.1110  -37.8830    4.4510 C.ar      1 PHE        -0.0602
     39 CD2        60.6650  -38.1250    2.1160 C.ar      1 PHE        -0.0602
     40 CE1        59.7900  -38.2590    4.7380 C.ar      1 PHE        -0.0686
     41 CE2        59.3350  -38.5030    2.3940 C.ar      1 PHE        -0.0686
     42 CZ         58.9040  -38.5690    3.7080 C.ar      1 PHE        -0.0687
     43 OXT        66.1110  -38.2440    2.9790 O.co2     1 PHE        -0.5664
     44 H1         58.6190  -46.5558    9.2014 H         1 ASP         0.2016
     45 H2         59.9497  -46.7181    8.2462 H         1 ASP         0.2016
     46 H3         58.4454  -46.7996    7.5828 H         1 ASP         0.2016
     47 H4         57.9989  -44.4925    8.1162 H         1 ASP         0.1117
     48 H5         60.9309  -44.4377    8.9656 H         1 ASP         0.0512
     49 H6         59.5680  -44.5794   10.1271 H         1 ASP         0.0512
     50 H7         58.5631  -42.8507    6.5915 H         1 TRP         0.1886
     51 H8         59.7568  -43.9388    4.1569 H         1 TRP         0.0815
     52 H9         59.2825  -41.7705    3.1647 H         1 TRP         0.0397
     53 H10        59.0280  -41.0346    4.7835 H         1 TRP         0.0397
     54 H11        56.5479  -40.6641    5.3286 H         1 TRP         0.0795
     55 H12        54.2871  -41.7601    4.6871 H         1 TRP         0.2216
     56 H13        58.3539  -44.4346    2.3408 H         1 TRP         0.0540
     57 H14        53.4299  -43.9509    3.1360 H         1 TRP         0.0541
     58 H15        56.7289  -46.0070    1.3118 H         1 TRP         0.0510
     59 H16        54.3046  -45.7595    1.7092 H         1 TRP         0.0530
     60 H17        61.6107  -42.9088    3.1062 H         1 GLU         0.1883
     61 H18        63.4883  -41.5472    5.0085 H         1 GLU         0.0801
     62 H19        65.3288  -42.7337    3.7727 H         1 GLU         0.0330
     63 H20        64.0813  -43.6798    2.8921 H         1 GLU         0.0330
     64 H21        63.2727  -44.6590    4.9397 H         1 GLU         0.0433
     65 H22        64.2983  -43.5665    5.9302 H         1 GLU         0.0433
     66 H23        63.9904  -39.5592    4.2824 H         1 PHE         0.1877
     67 H24        63.4393  -38.9854    1.4072 H         1 PHE         0.0749
     68 H25        62.9831  -36.6673    2.0532 H         1 PHE         0.0467
     69 H26        63.4402  -37.0249    3.7531 H         1 PHE         0.0467
     70 H27        61.7885  -37.6432    5.2625 H         1 PHE         0.0557
     71 H28        61.0000  -38.0742    1.0863 H         1 PHE         0.0557
     72 H29        59.4563  -38.3087    5.7682 H         1 PHE         0.0599
     73 H30        58.6547  -38.7403    1.5841 H         1 PHE         0.0599
     74 H31        57.8845  -38.8598    3.9341 H         1 PHE         0.0559
@<TRIPOS>BOND
     1    1    2 1  
     2    2    3 1  
     3    2    5 1  
     4    3    4 2  
     5    3    9 am 
     6    5    6 1  
     7    6    7 ar 
     8    6    8 ar 
     9    9   10 1  
    10   10   11 1  
    11   10   13 1  
    12   11   12 2  
    13   11   23 am 
    14   13   14 1  
    15   14   15 2  
    16   14   16 1  
    17   15   17 1  
    18   16   18 ar 
    19   16   19 ar 
    20   17   18 1  
    21   18   20 ar 
    22   19   21 ar 
    23   20   22 ar 
    24   21   22 ar 
    25   23   24 1  
    26   24   25 1  
    27   24   27 1  
    28   25   26 2  
    29   25   32 am 
    30   27   28 1  
    31   28   29 1  
    32   29   30 ar 
    33   29   31 ar 
    34   32   33 1  
    35   33   34 1  
    36   33   36 1  
    37   34   35 ar 
    38   34   43 ar 
    39   36   37 1  
    40   37   38 ar 
    41   37   39 ar 
    42   38   40 ar 
    43   39   41 ar 
    44   40   42 ar 
    45   41   42 ar 
    46    1   44 1  
    47    1   45 1  
    48    1   46 1  
    49    2   47 1  
    50    5   48 1  
    51    5   49 1  
    52    9   50 1  
    53   10   51 1  
    54   13   52 1  
    55   13   53 1  
    56   15   54 1  
    57   17   55 1  
    58   19   56 1  
    59   20   57 1  
    60   21   58 1  
    61   22   59 1  
    62   23   60 1  
    63   24   61 1  
    64   27   62 1  
    65   27   63 1  
    66   28   64 1  
    67   28   65 1  
    68   32   66 1  
    69   33   67 1  
    70   36   68 1  
    71   36   69 1  
    72   38   70 1  
    73   39   71 1  
    74   40   72 1  
    75   41   73 1  
    76   42   74 1  
@<TRIPOS>SUBSTRUCTURE
     1 ASP         1

