### 
### Created by X-TOOL on Mon Sep 10 21:12:51 2018
### 

@<TRIPOS>MOLECULE
1ur9_ligand
   71    73     1     0     0
SMALL
GAST_HUCK


@<TRIPOS>ATOM
      1 C1         16.2790   40.2940  103.1230 C.3       1 NAG         0.1854
      2 C2         16.4140   39.1250  104.1200 C.3       1 NAG         0.1210
      3 C3         15.2530   38.1140  103.9460 C.3       1 NAG         0.1111
      4 C4         13.9000   38.8470  103.9960 C.3       1 NAG         0.1116
      5 C5         13.8970   40.0100  102.9950 C.3       1 NAG         0.1130
      6 C6         12.6010   40.7980  103.0800 C.3       1 NAG         0.0730
      7 C7         18.6410   38.4330  104.9000 C.2       1 NAG         0.1733
      8 C8         19.9420   37.7130  104.5280 C.3       1 NAG         0.0257
      9 N2         17.7230   38.4700  103.9330 N.am      1 NAG        -0.2766
     10 O3         15.2890   37.1660  105.0200 O.3       1 NAG        -0.3867
     11 O4         12.8500   37.9250  103.6660 O.3       1 NAG        -0.3865
     12 O5         14.9880   40.9240  103.3060 O.3       1 NAG        -0.3408
     13 O6         12.6370   41.8310  102.1030 O.3       1 NAG        -0.3924
     14 O7         18.4880   38.9210  106.0210 O.2       1 NAG        -0.3974
     15 C1         18.7000   44.0530  100.8360 C.2       1 GDL         0.1893
     16 C2         17.3300   44.4710  101.3990 C.3       1 GDL         0.1483
     17 C3         16.7770   43.4160  102.3960 C.3       1 GDL         0.1227
     18 C4         17.6320   42.1160  102.3970 C.3       1 GDL         0.1252
     19 C5         19.0820   42.5210  102.6480 C.3       1 GDL         0.1379
     20 C6         19.9650   41.2660  102.7950 C.3       1 GDL         0.0780
     21 C7         18.4210   46.2680  102.7850 C.2       1 GDL         0.1755
     22 C8         18.3690   47.6980  103.3370 C.3       1 GDL         0.0258
     23 N1         17.3930   45.8250  102.0330 N.am      1 GDL        -0.2641
     24 O3         15.4320   43.0940  101.9960 O.3       1 GDL        -0.3842
     25 O4         17.2870   41.2480  103.4730 O.3       1 GDL        -0.3397
     26 O5         19.6050   43.3060  101.5520 O.3       1 GDL        -0.2871
     27 O6         19.9650   40.5260  101.5540 O.3       1 GDL        -0.3919
     28 O7         19.4070   45.5620  103.0080 O.2       1 GDL        -0.3972
     29 N          21.1270   42.7310   97.3260 N.am      1 PHJ        -0.2057
     30 C          20.1310   43.4750   97.8450 C.2       1 PHJ         0.3788
     31 O          20.1240   43.6410   99.1750 O.3       1 PHJ        -0.1506
     32 OXT        19.3190   44.1150   97.1310 O.2       1 PHJ        -0.3643
     33 C1         21.2470   42.3730   96.0340 C.ar      1 PHJ         0.0683
     34 C2         22.2990   41.5050   95.6810 C.ar      1 PHJ        -0.0414
     35 C3         22.3820   40.9740   94.3800 C.ar      1 PHJ        -0.0756
     36 C4         21.4110   41.3140   93.4240 C.ar      1 PHJ        -0.0773
     37 C5         20.3620   42.1910   93.7660 C.ar      1 PHJ        -0.0756
     38 C6         20.2790   42.7310   95.0630 C.ar      1 PHJ        -0.0414
     39 N2         18.9730   44.2340   99.5750 N.2       1 PHJ        -0.1541
     40 H1         16.4007   39.9460  102.0866 H         1 NAG         0.0935
     41 H2         16.3683   39.5290  105.1421 H         1 NAG         0.0633
     42 H3         15.3587   37.5938  102.9826 H         1 NAG         0.0645
     43 H4         13.7359   39.2403  105.0101 H         1 NAG         0.0647
     44 H5         14.0209   39.6118  101.9771 H         1 NAG         0.0647
     45 H6         12.4996   41.2388  104.0827 H         1 NAG         0.0584
     46 H7         11.7479   40.1317  102.8844 H         1 NAG         0.0584
     47 H8         20.6313   37.7353  105.3849 H         1 NAG         0.0467
     48 H9         20.4081   38.2183  103.6693 H         1 NAG         0.0467
     49 H10        19.7203   36.6687  104.2629 H         1 NAG         0.0467
     50 H11        17.9283   38.0403  103.0537 H         1 NAG         0.1857
     51 H12        15.1952   37.6230  105.8475 H         1 NAG         0.2100
     52 H13        12.8543   37.2063  104.2873 H         1 NAG         0.2100
     53 H14        11.8315   42.3329  102.1446 H         1 NAG         0.2095
     54 H15        16.6283   44.5305  100.5540 H         1 NAG         0.0821
     55 H16        16.7724   43.8426  103.4099 H         1 NAG         0.0672
     56 H17        17.5235   41.5942  101.4347 H         1 NAG         0.0657
     57 H18        19.1296   43.1136  103.5735 H         1 NAG         0.0708
     58 H19        19.5673   40.6307  103.6001 H         1 NAG         0.0588
     59 H20        20.9936   41.5687  103.0408 H         1 NAG         0.0588
     60 H21        19.2777   47.8978  103.9238 H         1 NAG         0.0467
     61 H22        17.4845   47.8105  103.9812 H         1 NAG         0.0467
     62 H23        18.3076   48.4114  102.5020 H         1 NAG         0.0467
     63 H24        16.6203   46.4433  101.8893 H         1 NAG         0.1888
     64 H25        15.0623   42.4679  102.6074 H         1 NAG         0.2103
     65 H26        20.3087   41.0751  100.8592 H         1 NAG         0.2095
     66 H27        21.8386   42.4177   97.9549 H         1 NAG         0.2276
     67 H28        23.0506   41.2439   96.4172 H         1 NAG         0.0501
     68 H29        23.1930   40.3046   94.1168 H         1 NAG         0.0577
     69 H30        21.4683   40.9019   92.4230 H         1 NAG         0.0487
     70 H31        19.6144   42.4512   93.0254 H         1 NAG         0.0577
     71 H32        19.4792   43.4169   95.3177 H         1 NAG         0.0501
@<TRIPOS>BOND
     1    1    2 1  
     2    1   12 1  
     3   25    1 1  
     4    2    3 1  
     5    2    9 1  
     6    3    4 1  
     7    3   10 1  
     8    5    4 1  
     9    4   11 1  
    10    5    6 1  
    11   12    5 1  
    12    6   13 1  
    13    7    8 1  
    14    9    7 am 
    15    7   14 2  
    16   15   16 1  
    17   15   26 1  
    18   39   15 2  
    19   16   17 1  
    20   16   23 1  
    21   17   18 1  
    22   17   24 1  
    23   19   18 1  
    24   18   25 1  
    25   19   20 1  
    26   26   19 1  
    27   20   27 1  
    28   21   22 1  
    29   23   21 am 
    30   21   28 2  
    31   30   29 am 
    32   29   33 1  
    33   31   30 1  
    34   30   32 2  
    35   31   39 1  
    36   33   34 ar 
    37   33   38 ar 
    38   34   35 ar 
    39   35   36 ar 
    40   36   37 ar 
    41   37   38 ar 
    42    1   40 1  
    43    2   41 1  
    44    3   42 1  
    45    4   43 1  
    46    5   44 1  
    47    6   45 1  
    48    6   46 1  
    49    8   47 1  
    50    8   48 1  
    51    8   49 1  
    52    9   50 1  
    53   10   51 1  
    54   11   52 1  
    55   13   53 1  
    56   16   54 1  
    57   17   55 1  
    58   18   56 1  
    59   19   57 1  
    60   20   58 1  
    61   20   59 1  
    62   22   60 1  
    63   22   61 1  
    64   22   62 1  
    65   23   63 1  
    66   24   64 1  
    67   27   65 1  
    68   29   66 1  
    69   34   67 1  
    70   35   68 1  
    71   36   69 1  
    72   37   70 1  
    73   38   71 1  
@<TRIPOS>SUBSTRUCTURE
     1 NAG         1

