### 
### Created by X-TOOL on Mon Sep 10 21:12:49 2018
### 

@<TRIPOS>MOLECULE
1urc_ligand
   96    97     1     0     0
SMALL
GAST_HUCK


@<TRIPOS>ATOM
      1 C          35.3960   18.7820   -2.0240 C.2       1 ACE         0.1751
      2 O          34.2160   18.5140   -2.2200 O.2       1 ACE        -0.3972
      3 CH3        36.4040   17.6870   -1.7060 C.3       1 ACE         0.0258
      4 N          35.8140   20.0360   -1.9690 N.am      1 ARG        -0.2658
      5 CA         37.2040   20.4270   -1.8800 C.3       1 ARG         0.1310
      6 C          37.4680   21.4440   -0.7980 C.2       1 ARG         0.2039
      7 O          36.9090   22.5280   -0.6940 O.2       1 ARG        -0.3944
      8 CB         37.4910   21.0380   -3.2630 C.3       1 ARG        -0.0092
      9 CG         38.9500   21.3700   -3.4170 C.3       1 ARG        -0.0156
     10 CD         39.3240   21.4400   -4.9050 C.3       1 ARG         0.0627
     11 NE         40.5590   22.2240   -4.8790 N.pl3     1 ARG        -0.2723
     12 CZ         40.7030   23.2440   -5.7010 C.cat     1 ARG         0.2882
     13 NH1        41.8030   23.9950   -5.6050 N.pl3     1 ARG        -0.2849
     14 NH2        39.7450   23.4320   -6.6120 N.pl3     1 ARG        -0.2849
     15 N          38.3650   21.0430    0.0520 N.am      1 LYS        -0.2637
     16 CA         38.7490   21.9250    1.1170 C.3       1 LYS         0.1310
     17 C          40.0810   22.5030    0.6640 C.2       1 LYS         0.2039
     18 O          40.9740   21.7450    0.3110 O.2       1 LYS        -0.3944
     19 CB         39.0910   21.0460    2.2950 C.3       1 LYS        -0.0123
     20 CG         40.0280   21.8980    3.1590 C.3       1 LYS        -0.0470
     21 CD         39.8950   21.5260    4.6350 C.3       1 LYS        -0.0325
     22 CE         41.2390   20.9560    5.1420 C.3       1 LYS         0.0309
     23 NZ         42.2900   21.9800    5.0020 N.am      1 LYS        -0.2853
     24 N          40.1840   23.8200    0.6760 N.am      1 LEU        -0.2637
     25 CA         41.4040   24.5390    0.2970 C.3       1 LEU         0.1312
     26 C          42.1710   24.9470    1.5760 C.2       1 LEU         0.2040
     27 O          41.5770   25.1670    2.6300 O.2       1 LEU        -0.3944
     28 CB         40.8960   25.8450   -0.3390 C.3       1 LEU        -0.0101
     29 CG         39.9450   25.6300   -1.5470 C.3       1 LEU        -0.0425
     30 CD1        40.5990   25.1090   -2.8200 C.3       1 LEU        -0.0625
     31 CD2        39.4580   27.0200   -1.9170 C.3       1 LEU        -0.0625
     32 N          43.4890   25.0680    1.4840 N.am      1 PHE        -0.2619
     33 CA         44.3190   25.5470    2.6140 C.3       1 PHE         0.1404
     34 C          44.5660   24.6400    3.8240 C.2       1 PHE         0.2058
     35 O          45.6970   24.2050    4.0330 O.2       1 PHE        -0.3942
     36 CB         44.0670   27.0060    3.0120 C.3       1 PHE         0.0214
     37 CG         43.7400   27.8260    1.7660 C.ar      1 PHE        -0.0386
     38 CD1        42.4470   28.3040    1.5410 C.ar      1 PHE        -0.0601
     39 CD2        44.3890   28.6930   -0.3830 C.ar      1 PHE        -0.0686
     40 CE1        42.1290   28.9890    0.3620 C.ar      1 PHE        -0.0686
     41 CE2        44.7230   28.0190    0.7970 C.ar      1 PHE        -0.0601
     42 CZ         43.1150   29.2220   -0.5940 C.ar      1 PHE        -0.0687
     43 N          43.5770   24.3810    4.6660 N.am      1 GLY        -0.2663
     44 CA         43.9330   23.5470    5.8210 C.3       1 GLY         0.1200
     45 C          42.8750   22.4960    6.0800 C.2       1 GLY         0.1985
     46 O          42.6180   22.1620    7.2370 O.2       1 GLY        -0.3949
     47 H1         37.3992   18.1342   -1.5659 H         1 ACE         0.0467
     48 H2         36.4390   16.9680   -2.5377 H         1 ACE         0.0467
     49 H3         36.1025   17.1674   -0.7845 H         1 ACE         0.0467
     50 H4         35.1248   20.7602   -1.9903 H         1 ARG         0.1882
     51 H5         37.8367   19.5449   -1.7023 H         1 ARG         0.0800
     52 H6         36.8992   21.9580   -3.3790 H         1 ARG         0.0313
     53 H7         37.2029   20.3161   -4.0414 H         1 ARG         0.0313
     54 H8         39.5534   20.5917   -2.9270 H         1 ARG         0.0301
     55 H9         39.1530   22.3427   -2.9452 H         1 ARG         0.0301
     56 H10        38.5421   21.9476   -5.4889 H         1 ARG         0.0689
     57 H11        39.4980   20.4362   -5.3198 H         1 ARG         0.0689
     58 H12        41.3128   21.9798   -4.2210 H         1 ARG         0.2642
     59 H13        41.9358   24.7970   -6.2375 H         1 ARG         0.2615
     60 H14        42.5186   23.7723   -4.8985 H         1 ARG         0.2615
     61 H15        38.9215   22.8135   -6.6286 H         1 ARG         0.2615
     62 H16        39.8295   24.1955   -7.2982 H         1 ARG         0.2615
     63 H17        38.7799   20.1372   -0.0342 H         1 LYS         0.1883
     64 H18        37.9907   22.6875    1.3483 H         1 LYS         0.0800
     65 H19        39.5988   20.1294    1.9603 H         1 LYS         0.0312
     66 H20        38.1832   20.7784    2.8556 H         1 LYS         0.0312
     67 H21        39.7709   22.9598    3.0304 H         1 LYS         0.0268
     68 H22        41.0665   21.7306    2.8374 H         1 LYS         0.0268
     69 H23        39.1067   20.7680    4.7532 H         1 LYS         0.0285
     70 H24        39.6329   22.4216    5.2174 H         1 LYS         0.0285
     71 H25        41.5089   20.0699    4.5487 H         1 LYS         0.0520
     72 H26        41.1415   20.6728    6.2004 H         1 LYS         0.0520
     73 H27        42.5650   22.2887    4.0915 H         1 LYS         0.1851
     74 H28        39.3876   24.3547    0.9586 H         1 LEU         0.1883
     75 H29        42.0353   23.9519   -0.3862 H         1 LEU         0.0800
     76 H30        41.7660   26.4240   -0.6823 H         1 LEU         0.0315
     77 H31        40.3552   26.4167    0.4296 H         1 LEU         0.0315
     78 H32        39.1178   24.9668   -1.2541 H         1 LEU         0.0298
     79 H33        39.8360   24.9953   -3.6041 H         1 LEU         0.0232
     80 H34        41.0666   24.1338   -2.6194 H         1 LEU         0.0232
     81 H35        41.3667   25.8216   -3.1560 H         1 LEU         0.0232
     82 H36        38.9657   27.4796   -1.0473 H         1 LEU         0.0232
     83 H37        38.7414   26.9482   -2.7484 H         1 LEU         0.0232
     84 H38        40.3141   27.6391   -2.2232 H         1 LEU         0.0232
     85 H39        43.9373   24.8278    0.6230 H         1 PHE         0.1885
     86 H40        45.3169   25.5857    2.1529 H         1 PHE         0.0823
     87 H41        44.9672   27.4151    3.4939 H         1 PHE         0.0474
     88 H42        43.2215   27.0535    3.7141 H         1 PHE         0.0474
     89 H43        41.6794   28.1425    2.2892 H         1 PHE         0.0557
     90 H44        45.1412   28.8074   -1.1551 H         1 PHE         0.0599
     91 H45        41.1166   29.3377    0.1933 H         1 PHE         0.0599
     92 H46        45.7309   27.6526    0.9550 H         1 PHE         0.0557
     93 H47        42.8972   29.8022   -1.4834 H         1 PHE         0.0559
     94 H48        42.6505   24.7298    4.5247 H         1 GLY         0.1881
     95 H49        44.0291   24.1870    6.7105 H         1 GLY         0.0763
     96 H50        44.8933   23.0488    5.6222 H         1 GLY         0.0763
@<TRIPOS>BOND
     1    1    2 2  
     2    1    3 1  
     3    1    4 am 
     4    4    5 1  
     5    5    6 1  
     6    5    8 1  
     7    6    7 2  
     8    6   15 am 
     9    8    9 1  
    10    9   10 1  
    11   10   11 1  
    12   11   12 ar 
    13   12   13 ar 
    14   12   14 ar 
    15   15   16 1  
    16   16   17 1  
    17   16   19 1  
    18   17   18 2  
    19   17   24 am 
    20   19   20 1  
    21   20   21 1  
    22   21   22 1  
    23   22   23 1  
    24   23   45 am 
    25   24   25 1  
    26   25   26 1  
    27   25   28 1  
    28   26   27 2  
    29   26   32 am 
    30   28   29 1  
    31   29   30 1  
    32   29   31 1  
    33   32   33 1  
    34   33   34 1  
    35   33   36 1  
    36   34   35 2  
    37   34   43 am 
    38   36   37 1  
    39   37   38 ar 
    40   37   41 ar 
    41   38   40 ar 
    42   41   39 ar 
    43   39   42 ar 
    44   40   42 ar 
    45   43   44 1  
    46   44   45 1  
    47   45   46 2  
    48    3   47 1  
    49    3   48 1  
    50    3   49 1  
    51    4   50 1  
    52    5   51 1  
    53    8   52 1  
    54    8   53 1  
    55    9   54 1  
    56    9   55 1  
    57   10   56 1  
    58   10   57 1  
    59   11   58 1  
    60   13   59 1  
    61   13   60 1  
    62   14   61 1  
    63   14   62 1  
    64   15   63 1  
    65   16   64 1  
    66   19   65 1  
    67   19   66 1  
    68   20   67 1  
    69   20   68 1  
    70   21   69 1  
    71   21   70 1  
    72   22   71 1  
    73   22   72 1  
    74   23   73 1  
    75   24   74 1  
    76   25   75 1  
    77   28   76 1  
    78   28   77 1  
    79   29   78 1  
    80   30   79 1  
    81   30   80 1  
    82   30   81 1  
    83   31   82 1  
    84   31   83 1  
    85   31   84 1  
    86   32   85 1  
    87   33   86 1  
    88   36   87 1  
    89   36   88 1  
    90   38   89 1  
    91   39   90 1  
    92   40   91 1  
    93   41   92 1  
    94   42   93 1  
    95   43   94 1  
    96   44   95 1  
    97   44   96 1  
@<TRIPOS>SUBSTRUCTURE
     1 ACE         1

