### 
### Created by X-TOOL on Sun Sep  9 21:50:04 2018
### 

@<TRIPOS>MOLECULE
1urg_ligand
   45    46     1     0     0
SMALL
GAST_HUCK


@<TRIPOS>ATOM
      1 C1        -34.5870   -0.0020   41.6420 C.3       1 NON         0.1884
      2 C2        -35.1750   -0.9660   42.6760 C.3       1 NON         0.1341
      3 C3        -35.9110   -2.0900   41.9280 C.3       1 NON         0.1141
      4 C4        -36.9940   -1.4960   41.0210 C.3       1 NON         0.1119
      5 C5        -36.3750   -0.4520   40.0820 C.3       1 NON         0.1130
      6 C6        -37.4080    0.2940   39.2580 C.3       1 NON         0.0730
      7 O1        -33.6660   -0.7020   40.8590 O.3       1 NON        -0.3401
      8 O2        -34.1280   -1.5140   43.4690 O.3       1 NON        -0.3841
      9 O3        -36.4900   -3.0050   42.8430 O.3       1 NON        -0.3864
     10 O4        -37.5900   -2.5310   40.2520 O.3       1 NON        -0.3865
     11 O5        -35.6420    0.5390   40.8440 O.3       1 NON        -0.3405
     12 O6        -36.7770    1.0580   38.2410 O.3       1 NON        -0.3924
     13 C1'       -29.7960   -0.3900   39.4060 C.3       1 NON         0.1854
     14 C2'       -29.9220   -0.4040   40.9290 C.3       1 NON         0.1339
     15 C3'       -31.3100   -0.9020   41.3240 C.3       1 NON         0.1144
     16 C4'       -32.3970   -0.0820   40.6280 C.3       1 NON         0.1184
     17 C5'       -32.1570   -0.0070   39.1130 C.3       1 NON         0.1134
     18 C6'       -33.1050    0.9870   38.4620 C.3       1 NON         0.0730
     19 O1'       -29.9460   -1.6770   38.9160 O.3       1 NON        -0.3649
     20 O2'       -28.9350   -1.2630   41.4760 O.3       1 NON        -0.3841
     21 O3'       -31.4810   -0.8170   42.7300 O.3       1 NON        -0.3864
     22 O5'       -30.8140    0.4450   38.8290 O.3       1 NON        -0.3407
     23 O6'       -33.0440    0.9060   37.0470 O.3       1 NON        -0.3924
     24 H1        -34.0707    0.8210   42.1578 H         1 NON         0.0938
     25 H2        -35.8821   -0.4285   43.3249 H         1 NON         0.0671
     26 H3        -35.1845   -2.6305   41.3035 H         1 NON         0.0648
     27 H4        -37.7635   -1.0145   41.6422 H         1 NON         0.0647
     28 H5        -35.6852   -0.9706   39.4000 H         1 NON         0.0647
     29 H6        -37.9777    0.9673   39.9154 H         1 NON         0.0584
     30 H7        -38.0926   -0.4310   38.7936 H         1 NON         0.0584
     31 H8        -34.4951   -2.1220   44.0999 H         1 NON         0.2101
     32 H9        -37.1319   -2.5529   43.3778 H         1 NON         0.2100
     33 H10       -37.9727   -3.1765   40.8345 H         1 NON         0.2100
     34 H11       -36.1868    1.6870   38.6391 H         1 NON         0.2095
     35 H12       -28.8046   -0.0031   39.1277 H         1 NON         0.0935
     36 H13       -29.7757    0.6147   41.3172 H         1 NON         0.0671
     37 H14       -31.4072   -1.9536   41.0162 H         1 NON         0.0648
     38 H15       -32.4015    0.9364   41.0438 H         1 NON         0.0651
     39 H16       -32.3117   -1.0054   38.6779 H         1 NON         0.0647
     40 H17       -32.8278    2.0044   38.7750 H         1 NON         0.0584
     41 H18       -34.1324    0.7697   38.7894 H         1 NON         0.0584
     42 H19       -29.8577   -1.6668   37.9702 H         1 NON         0.2126
     43 H20       -29.0622   -2.1431   41.1416 H         1 NON         0.2101
     44 H21       -32.3357   -1.1587   42.9652 H         1 NON         0.2100
     45 H22       -32.1595    1.0970   36.7578 H         1 NON         0.2095
@<TRIPOS>BOND
     1    1    2 1  
     2    7    1 1  
     3    1   11 1  
     4    2    3 1  
     5    2    8 1  
     6    3    4 1  
     7    3    9 1  
     8    5    4 1  
     9    4   10 1  
    10    5    6 1  
    11   11    5 1  
    12    6   12 1  
    13   16    7 1  
    14   14   13 1  
    15   13   19 1  
    16   13   22 1  
    17   15   14 1  
    18   14   20 1  
    19   15   16 1  
    20   15   21 1  
    21   16   17 1  
    22   17   18 1  
    23   17   22 1  
    24   18   23 1  
    25    1   24 1  
    26    2   25 1  
    27    3   26 1  
    28    4   27 1  
    29    5   28 1  
    30    6   29 1  
    31    6   30 1  
    32    8   31 1  
    33    9   32 1  
    34   10   33 1  
    35   12   34 1  
    36   13   35 1  
    37   14   36 1  
    38   15   37 1  
    39   16   38 1  
    40   17   39 1  
    41   18   40 1  
    42   18   41 1  
    43   19   42 1  
    44   20   43 1  
    45   21   44 1  
    46   23   45 1  
@<TRIPOS>SUBSTRUCTURE
     1 NON         1

