### 
### Created by X-TOOL on Mon Sep 10 21:12:52 2018
### 

@<TRIPOS>MOLECULE
1urw_ligand
   58    61     1     0     0
SMALL
GAST_HUCK


@<TRIPOS>ATOM
      1 C22         8.6020  -11.8350   11.7020 C.ar      1 I1P        -0.0328
      2 C1         17.4510   -5.8040   13.3890 C.ar      1 I1P        -0.0010
      3 C2         16.7050   -5.7110   12.2190 C.ar      1 I1P         0.0382
      4 C7         13.9060   -7.9330   12.9490 C.2       1 I1P         0.1718
      5 C6         17.0620   -6.5740   14.4790 C.ar      1 I1P         0.0425
      6 C3         15.3940   -6.5600   12.1540 C.ar      1 I1P         0.2092
      7 N5         15.9460   -7.2920   14.4550 N.ar      1 I1P        -0.2303
      8 C11        13.4070   -8.9970   15.1560 C.ar      1 I1P         0.0217
      9 C10        13.1360   -8.8360   13.7480 C.ar      1 I1P         0.1189
     10 C9         13.5960   -7.4850   11.5970 C.2       1 I1P         0.1648
     11 C17         9.6150  -10.8910   12.0370 C.ar      1 I1P         0.0723
     12 C14        11.4130  -10.4070   13.9510 C.ar      1 I1P         0.2363
     13 C13        12.5900   -9.9160   15.8700 C.ar      1 I1P         0.0525
     14 N15        12.1280   -9.5630   13.1890 N.ar      1 I1P        -0.2276
     15 C18         9.8370   -9.7660   11.1720 C.ar      1 I1P        -0.0328
     16 C19         9.0610   -9.5840   10.0160 C.ar      1 I1P        -0.0422
     17 C20         8.0550  -10.5260    9.7140 C.ar      1 I1P         0.0990
     18 N4         15.1460   -7.3460   13.2810 N.ar      1 I1P        -0.2063
     19 N8         14.5560   -6.5990   11.0750 N.pl3     1 I1P        -0.1813
     20 N13        11.6090  -10.6050   15.2590 N.ar      1 I1P        -0.2131
     21 N16        10.3630  -11.1090   13.2540 N.pl3     1 I1P        -0.2326
     22 C21         7.8170  -11.6560   10.5390 C.ar      1 I1P        -0.0422
     23 S23         7.0600  -10.2820    8.3090 S.o2      1 I1P         0.0642
     24 N24         8.0120   -9.4770    7.0960 N.am      1 I1P        -0.2482
     25 C25         8.9500  -10.4070    6.4280 C.3       1 I1P         0.0313
     26 C26         9.2920   -9.9200    5.0140 C.3       1 I1P         0.0043
     27 C27         8.0420   -9.8120    4.0910 C.3       1 I1P        -0.0309
     28 N28         8.2740   -9.6630    2.6080 N.4       1 I1P         0.2309
     29 C29         8.6270  -10.9290    1.9080 C.3       1 I1P        -0.0433
     30 C30         9.2700   -8.5860    2.2800 C.3       1 I1P        -0.0433
     31 O31         5.8420   -9.3400    8.6930 O.2       1 I1P        -0.1515
     32 O32         6.5250  -11.6650    7.7570 O.2       1 I1P        -0.1515
     33 H1          8.4321  -12.6940   12.3410 H         1 I1P         0.0555
     34 H2         18.3802   -5.2496   13.4541 H         1 I1P         0.0857
     35 H3         17.0169   -5.0814   11.3936 H         1 I1P         0.0893
     36 H4         17.6832   -6.5883   15.3673 H         1 I1P         0.1053
     37 H5         14.1980   -8.4422   15.6475 H         1 I1P         0.0972
     38 H6         12.7116   -7.8036   11.0472 H         1 I1P         0.1793
     39 H7         12.7613  -10.0648   16.9300 H         1 I1P         0.0991
     40 H8         10.6129   -9.0489   11.4145 H         1 I1P         0.0555
     41 H9          9.2321   -8.7335    9.3661 H         1 I1P         0.0614
     42 H10        14.6105   -6.1258   10.1617 H         1 I1P         0.2783
     43 H11        10.0786  -11.9716   13.7398 H         1 I1P         0.2241
     44 H12         7.0446  -12.3717   10.2815 H         1 I1P         0.0614
     45 H13         7.9350   -8.5044    6.8767 H         1 I1P         0.1671
     46 H14         8.4854  -11.4020    6.3634 H         1 I1P         0.0477
     47 H15         9.8750  -10.4719    7.0198 H         1 I1P         0.0477
     48 H16        10.0023  -10.6275    4.5614 H         1 I1P         0.0332
     49 H17         9.7601   -8.9274    5.0883 H         1 I1P         0.0332
     50 H18         7.4641   -8.9366    4.4223 H         1 I1P         0.0815
     51 H19         7.4445  -10.7235    4.2397 H         1 I1P         0.0815
     52 H20         7.3919   -9.3650    2.2219 H         1 I1P         0.2028
     53 H21         8.7772  -10.7264    0.8373 H         1 I1P         0.0777
     54 H22         7.8115  -11.6566    2.0326 H         1 I1P         0.0777
     55 H23         9.5531  -11.3392    2.3369 H         1 I1P         0.0777
     56 H24         8.9942   -7.6594    2.8048 H         1 I1P         0.0777
     57 H25         9.2716   -8.4062    1.1948 H         1 I1P         0.0777
     58 H26        10.2730   -8.9042    2.6005 H         1 I1P         0.0777
@<TRIPOS>BOND
     1   11    1 ar 
     2    1   22 ar 
     3    3    2 ar 
     4    5    2 ar 
     5    6    3 ar 
     6    9    4 1  
     7    4   10 2  
     8    4   18 1  
     9    7    5 ar 
    10   18    6 ar 
    11    6   19 1  
    12   18    7 ar 
    13    9    8 ar 
    14    8   13 ar 
    15   14    9 ar 
    16   10   19 1  
    17   11   15 ar 
    18   21   11 1  
    19   12   14 ar 
    20   12   20 ar 
    21   12   21 1  
    22   13   20 ar 
    23   15   16 ar 
    24   16   17 ar 
    25   17   22 ar 
    26   17   23 1  
    27   23   24 am 
    28   23   31 2  
    29   23   32 2  
    30   24   25 1  
    31   25   26 1  
    32   26   27 1  
    33   27   28 1  
    34   28   29 1  
    35   28   30 1  
    36    1   33 1  
    37    2   34 1  
    38    3   35 1  
    39    5   36 1  
    40    8   37 1  
    41   10   38 1  
    42   13   39 1  
    43   15   40 1  
    44   16   41 1  
    45   19   42 1  
    46   21   43 1  
    47   22   44 1  
    48   24   45 1  
    49   25   46 1  
    50   25   47 1  
    51   26   48 1  
    52   26   49 1  
    53   27   50 1  
    54   27   51 1  
    55   28   52 1  
    56   29   53 1  
    57   29   54 1  
    58   29   55 1  
    59   30   56 1  
    60   30   57 1  
    61   30   58 1  
@<TRIPOS>SUBSTRUCTURE
     1 I1P         1

