### 
### Created by X-TOOL on Sun Sep  9 21:50:03 2018
### 

@<TRIPOS>MOLECULE
1usi_ligand
   23    23     1     0     0
SMALL
GAST_HUCK


@<TRIPOS>ATOM
      1 N          31.1900    8.7170   48.4030 N.4       1 NON         0.2341
      2 CA         30.3350    9.8780   48.0900 C.3       1 NON         0.0378
      3 C          30.9490   11.1880   48.6260 C.2       1 NON         0.0866
      4 O          30.3430   12.2340   48.3490 O.co2     1 NON        -0.5641
      5 CB         28.9380    9.7620   48.7130 C.3       1 NON         0.0361
      6 CG         28.2390    8.4860   48.3920 C.ar      1 NON        -0.0360
      7 CD1        27.5540    7.7950   49.3660 C.ar      1 NON        -0.0600
      8 CD2        28.2360    8.0170   47.0700 C.ar      1 NON        -0.0600
      9 CE1        26.8950    6.6170   49.1150 C.ar      1 NON        -0.0686
     10 CE2        27.5620    6.7740   46.7640 C.ar      1 NON        -0.0686
     11 CZ         26.8850    6.0860   47.7970 C.ar      1 NON        -0.0687
     12 OXT        31.9690   11.1070   49.2640 O.co2     1 NON        -0.5641
     13 H1         30.7636    7.8784   48.0411 H         1 NON         0.2012
     14 H2         31.2946    8.6364   49.4023 H         1 NON         0.2012
     15 H3         32.0960    8.8429   47.9794 H         1 NON         0.2012
     16 H4         30.2357    9.9445   46.9965 H         1 NON         0.1048
     17 H5         28.3234   10.5962   48.3436 H         1 NON         0.0500
     18 H6         29.0386    9.8365   49.8058 H         1 NON         0.0500
     19 H7         27.5341    8.1975   50.3723 H         1 NON         0.0557
     20 H8         28.7326    8.5790   46.2873 H         1 NON         0.0557
     21 H9         26.3856    6.0953   49.9171 H         1 NON         0.0599
     22 H10        27.5759    6.3754   45.7560 H         1 NON         0.0599
     23 H11        26.3622    5.1603   47.5852 H         1 NON         0.0559
@<TRIPOS>BOND
     1    1    2 1  
     2    2    3 1  
     3    2    5 1  
     4    3    4 ar 
     5    3   12 ar 
     6    5    6 1  
     7    6    7 ar 
     8    6    8 ar 
     9    7    9 ar 
    10    8   10 ar 
    11    9   11 ar 
    12   10   11 ar 
    13    1   13 1  
    14    1   14 1  
    15    1   15 1  
    16    2   16 1  
    17    5   17 1  
    18    5   18 1  
    19    7   19 1  
    20    8   20 1  
    21    9   21 1  
    22   10   22 1  
    23   11   23 1  
@<TRIPOS>SUBSTRUCTURE
     1 NON         1

