### 
### Created by X-TOOL on Sun Sep  9 21:50:04 2018
### 

@<TRIPOS>MOLECULE
1usk_ligand
   22    21     1     0     0
SMALL
GAST_HUCK


@<TRIPOS>ATOM
      1 N          32.7000   -1.4910   39.7910 N.4       1 NON         0.2327
      2 CA         33.5930   -1.5670   38.6390 C.3       1 NON         0.0286
      3 C          33.0740   -2.5760   37.6260 C.2       1 NON         0.0844
      4 O          32.0400   -3.2200   37.8510 O.co2     1 NON        -0.5643
      5 CB         35.0040   -1.9670   39.0680 C.3       1 NON         0.0047
      6 CG         35.6950   -1.0680   40.0870 C.3       1 NON        -0.0400
      7 CD1        37.0080   -1.7090   40.5270 C.3       1 NON        -0.0624
      8 CD2        35.9190    0.3250   39.5230 C.3       1 NON        -0.0624
      9 OXT        33.6950   -2.7370   36.5760 O.co2     1 NON        -0.5643
     10 H1         33.0591   -0.8187   40.4507 H         1 NON         0.2010
     11 H2         32.6419   -2.3958   40.2314 H         1 NON         0.2010
     12 H3         31.7823   -1.2059   39.4866 H         1 NON         0.2010
     13 H4         33.6350   -0.5758   38.1638 H         1 NON         0.1024
     14 H5         35.6320   -1.9901   38.1652 H         1 NON         0.0341
     15 H6         34.9463   -2.9767   39.5006 H         1 NON         0.0341
     16 H7         35.0427   -0.9772   40.9680 H         1 NON         0.0298
     17 H8         37.5051   -1.0590   41.2621 H         1 NON         0.0232
     18 H9         37.6625   -1.8413   39.6529 H         1 NON         0.0232
     19 H10        36.8030   -2.6887   40.9833 H         1 NON         0.0232
     20 H11        34.9544    0.7560   39.2167 H         1 NON         0.0232
     21 H12        36.5869    0.2646   38.6511 H         1 NON         0.0232
     22 H13        36.3777    0.9629   40.2928 H         1 NON         0.0232
@<TRIPOS>BOND
     1    1    2 1  
     2    2    3 1  
     3    2    5 1  
     4    3    4 ar 
     5    3    9 ar 
     6    5    6 1  
     7    6    7 1  
     8    6    8 1  
     9    1   10 1  
    10    1   11 1  
    11    1   12 1  
    12    2   13 1  
    13    5   14 1  
    14    5   15 1  
    15    6   16 1  
    16    7   17 1  
    17    7   18 1  
    18    7   19 1  
    19    8   20 1  
    20    8   21 1  
    21    8   22 1  
@<TRIPOS>SUBSTRUCTURE
     1 NON         1

