### 
### Created by X-TOOL on Mon Sep 10 21:12:46 2018
### 

@<TRIPOS>MOLECULE
1usn_ligand
   37    38     1     0     0
SMALL
GAST_HUCK


@<TRIPOS>ATOM
      1 C1         30.2460   46.7170   48.5170 C.2       1 IN9         0.2176
      2 C2         31.5450   48.6720   48.9840 C.2       1 IN9         0.1563
      3 C3         28.0690   45.4910   48.7770 C.2       1 IN9         0.3002
      4 C7         25.2580   44.2280   47.2870 C.3       1 IN9         0.0193
      5 C8         24.5330   46.5630   46.8750 C.ar      1 IN9         0.1589
      6 C9         25.4050   45.5580   46.6030 C.ar      1 IN9         0.0217
      7 C10        26.3780   45.7110   45.6450 C.ar      1 IN9         0.1589
      8 C11        26.5220   46.9180   45.0240 C.ar      1 IN9         0.1858
      9 C12        25.6820   47.9480   45.3290 C.ar      1 IN9         0.1874
     10 C13        24.6970   47.7870   46.2570 C.ar      1 IN9         0.1858
     11 C14        24.3630   41.3640   50.6840 C.3       1 IN9         0.0196
     12 S1         29.9770   48.1660   49.3840 S.3       1 IN9         0.0736
     13 N1         31.4160   46.6130   47.9580 N.2       1 IN9        -0.2759
     14 N2         32.1760   47.7510   48.2380 N.2       1 IN9        -0.2791
     15 N3         29.3610   45.5620   48.4130 N.am      1 IN9        -0.1807
     16 S2         32.3620   50.2300   49.4090 S.3       1 IN9        -0.0736
     17 O1         27.4500   46.5950   49.3110 O.2       1 IN9        -0.3868
     18 N4         27.3770   44.2800   48.4840 N.am      1 IN9        -0.2434
     19 C5         25.9460   44.2060   48.6720 C.3       1 IN9         0.1397
     20 C6         25.7070   42.8950   49.3170 C.2       1 IN9         0.2031
     21 O2         26.4450   41.9680   49.0470 O.2       1 IN9        -0.3944
     22 N5         24.5620   42.7460   50.1680 N.am      1 IN9        -0.2880
     23 F10        27.2580   44.7130   45.3510 F         1 IN9        -0.1954
     24 F11        27.4790   47.1340   44.0660 F         1 IN9        -0.1914
     25 F12        25.7740   49.1330   44.6540 F         1 IN9        -0.1930
     26 F13        23.8030   48.8230   46.4920 F         1 IN9        -0.1914
     27 F8         23.4670   46.4350   47.7380 F         1 IN9        -0.1954
     28 H1         24.1872   44.0140   47.4196 H         1 IN9         0.0449
     29 H2         25.7115   43.4515   46.6535 H         1 IN9         0.0449
     30 H3         23.4689   41.3369   51.3243 H         1 IN9         0.0484
     31 H4         25.2431   41.0612   51.2703 H         1 IN9         0.0484
     32 H5         24.2298   40.6727   49.8389 H         1 IN9         0.0484
     33 H6         29.7602   44.7300   48.0278 H         1 IN9         0.2393
     34 H7         32.4089   50.3208   50.4118 H         1 IN9         0.1309
     35 H8         27.8804   43.4835   48.1492 H         1 IN9         0.1889
     36 H9         25.5800   45.0326   49.2987 H         1 IN9         0.0819
     37 H10        23.9508   43.5043   50.3948 H         1 IN9         0.1848
@<TRIPOS>BOND
     1    1   15 am 
     2   13    1 2  
     3    1   12 1  
     4   14   13 1  
     5   15    3 am 
     6    3   17 2  
     7    3   18 am 
     8   18   19 1  
     9   19   20 1  
    10   19    4 1  
    11    4    6 1  
    12    6    5 ar 
    13    6    7 ar 
    14    7    8 ar 
    15    8    9 ar 
    16   10    9 ar 
    17    5   10 ar 
    18   20   22 am 
    19   20   21 2  
    20   22   11 1  
    21    7   23 1  
    22    2   16 1  
    23   14    2 2  
    24   12    2 1  
    25    8   24 1  
    26    9   25 1  
    27   10   26 1  
    28    5   27 1  
    29    4   28 1  
    30    4   29 1  
    31   11   30 1  
    32   11   31 1  
    33   11   32 1  
    34   15   33 1  
    35   16   34 1  
    36   18   35 1  
    37   19   36 1  
    38   22   37 1  
@<TRIPOS>SUBSTRUCTURE
     1 IN9         1

