### 
### Created by X-TOOL on Mon Sep 10 21:12:51 2018
### 

@<TRIPOS>MOLECULE
1utj_ligand
   18    18     1     0     0
SMALL
GAST_HUCK


@<TRIPOS>ATOM
      1 N          25.8960   17.3950   57.6730 N.4       1 ABN         0.2308
      2 C          24.4380   17.2620   57.3720 C.3       1 ABN        -0.0016
      3 C1         23.7520   16.1380   58.0900 C.ar      1 ABN         0.0013
      4 C2         24.2980   14.8560   58.0800 C.ar      1 ABN        -0.0553
      5 C3         23.6700   13.8080   58.7620 C.ar      1 ABN        -0.0684
      6 C4         22.4890   14.0490   59.4560 C.ar      1 ABN        -0.0687
      7 C5         21.9420   15.3230   59.4690 C.ar      1 ABN        -0.0684
      8 C6         22.5730   16.3590   58.7880 C.ar      1 ABN        -0.0553
      9 H1         26.2772   18.1695   57.1526 H         1 ABN         0.2008
     10 H2         26.3722   16.5465   57.4097 H         1 ABN         0.2008
     11 H3         26.0219   17.5587   58.6596 H         1 ABN         0.2008
     12 H4         24.3246   17.0979   56.2903 H         1 ABN         0.0979
     13 H5         23.9422   18.2025   57.6542 H         1 ABN         0.0979
     14 H6         25.2183   14.6688   57.5386 H         1 ABN         0.0558
     15 H7         24.1016   12.8137   58.7495 H         1 ABN         0.0599
     16 H8         21.9968   13.2417   59.9861 H         1 ABN         0.0559
     17 H9         21.0220   15.5119   60.0102 H         1 ABN         0.0599
     18 H10        22.1381   17.3518   58.8027 H         1 ABN         0.0558
@<TRIPOS>BOND
     1    1    2 1  
     2    2    3 1  
     3    3    4 ar 
     4    3    8 ar 
     5    4    5 ar 
     6    5    6 ar 
     7    6    7 ar 
     8    7    8 ar 
     9    1    9 1  
    10    1   10 1  
    11    1   11 1  
    12    2   12 1  
    13    2   13 1  
    14    4   14 1  
    15    5   15 1  
    16    6   16 1  
    17    7   17 1  
    18    8   18 1  
@<TRIPOS>SUBSTRUCTURE
     1 ABN         1

