### 
### Created by X-TOOL on Mon Sep 10 21:12:51 2018
### 

@<TRIPOS>MOLECULE
1utl_ligand
   24    24     1     0     0
SMALL
GAST_HUCK


@<TRIPOS>ATOM
      1 C1         24.0570   16.3640   58.0610 C.3       1 PRA        -0.0336
      2 C2         22.7200   16.0660   58.7220 C.3       1 PRA        -0.0029
      3 C3         22.6990   14.6840   59.3550 C.3       1 PRA        -0.0143
      4 C1'        22.2710   13.5430   58.4670 C.ar      1 PRA        -0.0428
      5 C2'        23.1210   13.0360   57.4800 C.ar      1 PRA        -0.0603
      6 C3'        22.7340   11.9280   56.6790 C.ar      1 PRA        -0.0686
      7 C4'        21.4840   11.3270   56.8700 C.ar      1 PRA        -0.0687
      8 C5'        20.6230   11.8290   57.8540 C.ar      1 PRA        -0.0686
      9 C6'        21.0240   12.9360   58.6470 C.ar      1 PRA        -0.0603
     10 N          24.2670   17.8200   57.7730 N.4       1 PRA         0.2186
     11 H1         24.1081   15.8100   57.1121 H         1 PRA         0.0815
     12 H2         24.8606   16.0213   58.7294 H         1 PRA         0.0815
     13 H3         21.9267   16.1216   57.9620 H         1 PRA         0.0339
     14 H4         22.5332   16.8181   59.5027 H         1 PRA         0.0339
     15 H5         22.0083   14.7188   60.2104 H         1 PRA         0.0428
     16 H6         23.7157   14.4652   59.7133 H         1 PRA         0.0428
     17 H7         24.0904   13.4952   57.3232 H         1 PRA         0.0557
     18 H8         23.4072   11.5477   55.9193 H         1 PRA         0.0599
     19 H9         21.1853   10.4808   56.2618 H         1 PRA         0.0559
     20 H10        19.6520   11.3730   58.0098 H         1 PRA         0.0599
     21 H11        20.3511   13.3180   59.4062 H         1 PRA         0.0557
     22 H12        25.1667   17.9500   57.3374 H         1 PRA         0.1994
     23 H13        24.2326   18.3414   58.6350 H         1 PRA         0.1994
     24 H14        23.5430   18.1477   57.1529 H         1 PRA         0.1994
@<TRIPOS>BOND
     1    1    2 1  
     2    1   10 1  
     3    2    3 1  
     4    3    4 1  
     5    4    5 ar 
     6    4    9 ar 
     7    5    6 ar 
     8    6    7 ar 
     9    7    8 ar 
    10    8    9 ar 
    11    1   11 1  
    12    1   12 1  
    13    2   13 1  
    14    2   14 1  
    15    3   15 1  
    16    3   16 1  
    17    5   17 1  
    18    6   18 1  
    19    7   19 1  
    20    8   20 1  
    21    9   21 1  
    22   10   22 1  
    23   10   23 1  
    24   10   24 1  
@<TRIPOS>SUBSTRUCTURE
     1 PRA         1

