### 
### Created by X-TOOL on Mon Sep 10 21:12:51 2018
### 

@<TRIPOS>MOLECULE
1uto_ligand
   21    21     1     0     0
SMALL
GAST_HUCK


@<TRIPOS>ATOM
      1 C1'        45.2880   20.2790   50.4580 C.ar      1 PEA        -0.0380
      2 C6'        46.2750   21.2320   50.6380 C.ar      1 PEA        -0.0602
      3 C5'        46.1530   22.5390   50.1950 C.ar      1 PEA        -0.0686
      4 C4'        45.0100   22.9460   49.5230 C.ar      1 PEA        -0.0687
      5 C3'        44.0220   22.0000   49.3210 C.ar      1 PEA        -0.0686
      6 C2'        44.1610   20.7100   49.7750 C.ar      1 PEA        -0.0602
      7 C2         45.4430   18.9650   50.9490 C.3       1 PEA         0.0211
      8 C1         45.5370   18.9420   52.5050 C.3       1 PEA        -0.0258
      9 N          45.7910   17.5620   53.0200 N.4       1 PEA         0.2200
     10 H1         47.1859   20.9425   51.1494 H         1 PEA         0.0557
     11 H2         46.9543   23.2466   50.3744 H         1 PEA         0.0599
     12 H3         44.8958   23.9647   49.1704 H         1 PEA         0.0559
     13 H4         43.1181   22.2818   48.7931 H         1 PEA         0.0599
     14 H5         43.3596   20.0033   49.5922 H         1 PEA         0.0557
     15 H6         46.3635   18.5332   50.5293 H         1 PEA         0.0478
     16 H7         44.5785   18.3619   50.6346 H         1 PEA         0.0478
     17 H8         44.5900   19.3113   52.9255 H         1 PEA         0.0837
     18 H9         46.3602   19.5988   52.8228 H         1 PEA         0.0837
     19 H10        45.8458   17.5837   54.0263 H         1 PEA         0.1996
     20 H11        46.6603   17.2175   52.6435 H         1 PEA         0.1996
     21 H12        45.0382   16.9541   52.7376 H         1 PEA         0.1996
@<TRIPOS>BOND
     1    1    2 ar 
     2    1    6 ar 
     3    1    7 1  
     4    2    3 ar 
     5    3    4 ar 
     6    4    5 ar 
     7    5    6 ar 
     8    7    8 1  
     9    8    9 1  
    10    2   10 1  
    11    3   11 1  
    12    4   12 1  
    13    5   13 1  
    14    6   14 1  
    15    7   15 1  
    16    7   16 1  
    17    8   17 1  
    18    8   18 1  
    19    9   19 1  
    20    9   20 1  
    21    9   21 1  
@<TRIPOS>SUBSTRUCTURE
     1 PEA         1

