### 
### Created by X-TOOL on Mon Sep 10 21:12:51 2018
### 

@<TRIPOS>MOLECULE
1utp_ligand
   27    27     1     0     0
SMALL
GAST_HUCK


@<TRIPOS>ATOM
      1 C1         45.1120   18.4410   52.3110 C.3       1 PBN        -0.0352
      2 C2         45.3410   18.6890   50.8450 C.3       1 PBN        -0.0109
      3 C3         45.9470   20.0530   50.5420 C.3       1 PBN        -0.0385
      4 C4         44.9500   20.8470   49.7010 C.3       1 PBN        -0.0190
      5 C1'        45.1900   22.1990   49.5100 C.ar      1 PBN        -0.0430
      6 C2'        44.4270   22.9590   48.6320 C.ar      1 PBN        -0.0603
      7 C3'        44.7030   24.2970   48.4720 C.ar      1 PBN        -0.0686
      8 C4'        45.7240   24.9230   49.1610 C.ar      1 PBN        -0.0687
      9 C5'        46.4970   24.1830   50.0360 C.ar      1 PBN        -0.0686
     10 C6'        46.2170   22.8440   50.1990 C.ar      1 PBN        -0.0603
     11 N          46.0630   17.4450   52.8970 N.4       1 PBN         0.2185
     12 H1         44.0866   18.0664   52.4460 H         1 PBN         0.0813
     13 H2         45.2283   19.3934   52.8489 H         1 PBN         0.0813
     14 H3         44.3744   18.6153   50.3252 H         1 PBN         0.0318
     15 H4         46.0223   17.9140   50.4640 H         1 PBN         0.0318
     16 H5         46.8863   19.9266   49.9836 H         1 PBN         0.0289
     17 H6         46.1484   20.5873   51.4822 H         1 PBN         0.0289
     18 H7         43.9669   20.7548   50.1857 H         1 PBN         0.0426
     19 H8         44.9141   20.3777   48.7068 H         1 PBN         0.0426
     20 H9         43.6180   22.4996   48.0757 H         1 PBN         0.0557
     21 H10        44.1005   24.8786   47.7837 H         1 PBN         0.0599
     22 H11        45.9162   25.9801   49.0173 H         1 PBN         0.0559
     23 H12        47.3087   24.6478   50.5839 H         1 PBN         0.0599
     24 H13        46.8199   22.2677   50.8915 H         1 PBN         0.0557
     25 H14        45.8597   17.3225   53.8767 H         1 PBN         0.1994
     26 H15        47.0080   17.7789   52.7891 H         1 PBN         0.1994
     27 H16        45.9618   16.5628   52.4200 H         1 PBN         0.1994
@<TRIPOS>BOND
     1    1    2 1  
     2    1   11 1  
     3    2    3 1  
     4    3    4 1  
     5    4    5 1  
     6    5    6 ar 
     7    5   10 ar 
     8    6    7 ar 
     9    7    8 ar 
    10    8    9 ar 
    11    9   10 ar 
    12    1   12 1  
    13    1   13 1  
    14    2   14 1  
    15    2   15 1  
    16    3   16 1  
    17    3   17 1  
    18    4   18 1  
    19    4   19 1  
    20    6   20 1  
    21    7   21 1  
    22    8   22 1  
    23    9   23 1  
    24   10   24 1  
    25   11   25 1  
    26   11   26 1  
    27   11   27 1  
@<TRIPOS>SUBSTRUCTURE
     1 PBN         1

