### 
### Created by X-TOOL on Mon Sep 10 21:12:45 2018
### 

@<TRIPOS>MOLECULE
1utr_ligand
   34    35     1     0     0
SMALL
GAST_HUCK


@<TRIPOS>ATOM
      1 C1        117.0750   -0.4940    0.1400 C.ar      1 PCB        -0.0032
      2 C2        117.4240   -1.1560   -1.0450 C.ar      1 PCB         0.0501
      3 CL2       116.9790   -0.4780   -2.5840 Cl        1 PCB        -0.0692
      4 C3        118.1300   -2.3660   -0.9900 C.ar      1 PCB        -0.0220
      5 C4        118.4880   -2.9150    0.2490 C.ar      1 PCB         0.1023
      6 C5        118.1390   -2.2510    1.4350 C.ar      1 PCB         0.0658
      7 CL5       118.5800   -2.9260    2.9760 Cl        1 PCB        -0.0686
      8 C6        117.4320   -1.0410    1.3790 C.ar      1 PCB        -0.0379
      9 S         119.3820   -4.4450    0.3130 S.o2      1 PCB        -0.0054
     10 O1        120.2420   -4.4220    1.4670 O.2       1 PCB        -0.1696
     11 O2        119.9770   -4.6710   -0.9790 O.2       1 PCB        -0.1696
     12 CM        118.0970   -5.6920    0.5730 C.3       1 PCB         0.0596
     13 C1'       116.3680    0.7160    0.0850 C.ar      1 PCB        -0.0032
     14 C2'       117.0310    1.9010   -0.2580 C.ar      1 PCB         0.0501
     15 CL2'      118.7340    1.8720   -0.6160 Cl        1 PCB        -0.0692
     16 C3'       116.3240    3.1110   -0.3110 C.ar      1 PCB        -0.0220
     17 C4'       114.9530    3.1360   -0.0220 C.ar      1 PCB         0.1023
     18 C5'       114.2890    1.9480    0.3210 C.ar      1 PCB         0.0658
     19 CL5'      112.5870    1.9720    0.6810 Cl        1 PCB        -0.0686
     20 C6'       114.9970    0.7390    0.3740 C.ar      1 PCB        -0.0379
     21 S'        114.0630    4.6680   -0.0920 S.o2      1 PCB        -0.0054
     22 O1'       112.7120    4.3910   -0.5070 O.2       1 PCB        -0.1696
     23 O2'       114.8380    5.6020   -0.8670 O.2       1 PCB        -0.1696
     24 CM'       114.0370    5.2370    1.6250 C.3       1 PCB         0.0596
     25 H1        118.3994   -2.8777   -1.9069 H         1 PCB         0.0642
     26 H2        117.1617   -0.5288    2.2953 H         1 PCB         0.0630
     27 H3        118.5590   -6.6888    0.6271 H         1 PCB         0.0468
     28 H4        117.3837   -5.6635   -0.2639 H         1 PCB         0.0468
     29 H5        117.5672   -5.4819    1.5138 H         1 PCB         0.0468
     30 H6        116.8385    4.0277   -0.5757 H         1 PCB         0.0642
     31 H7        114.4836   -0.1783    0.6386 H         1 PCB         0.0630
     32 H8        113.4990    6.1945    1.6858 H         1 PCB         0.0468
     33 H9        115.0686    5.3727    1.9820 H         1 PCB         0.0468
     34 H10       113.5276    4.4898    2.2512 H         1 PCB         0.0468
@<TRIPOS>BOND
     1    1    2 ar 
     2    1    8 ar 
     3    1   13 1  
     4    2    3 1  
     5    2    4 ar 
     6    4    5 ar 
     7    4   25 1  
     8    5    6 ar 
     9    5    9 1  
    10    6    7 1  
    11    6    8 ar 
    12    8   26 1  
    13    9   10 2  
    14    9   11 2  
    15    9   12 1  
    16   12   27 1  
    17   12   28 1  
    18   12   29 1  
    19   13   14 ar 
    20   13   20 ar 
    21   14   15 1  
    22   14   16 ar 
    23   16   17 ar 
    24   16   30 1  
    25   17   18 ar 
    26   17   21 1  
    27   18   19 1  
    28   18   20 ar 
    29   20   31 1  
    30   21   22 2  
    31   21   23 2  
    32   21   24 1  
    33   24   32 1  
    34   24   33 1  
    35   24   34 1  
@<TRIPOS>SUBSTRUCTURE
     1 PCB         1

