### 
### Created by X-TOOL on Mon Sep 10 21:12:51 2018
### 

@<TRIPOS>MOLECULE
1utt_ligand
   46    49     1     0     0
SMALL
GAST_HUCK


@<TRIPOS>ATOM
      1 C1        120.0250   37.5110   80.3020 C.ar      1 CP8         0.0622
      2 C2        119.6350   36.7030   79.1170 C.ar      1 CP8        -0.0079
      3 N3        120.5530   38.7440   79.9670 N.am      1 CP8        -0.1867
      4 C4        119.8420   36.9650   81.5940 C.ar      1 CP8        -0.0577
      5 C5        119.0800   35.4200   79.2710 C.ar      1 CP8        -0.0694
      6 C6        119.9280   37.4420   77.8680 C.3       1 CP8         0.1170
      7 S7        121.0080   38.7540   78.3900 S.o2      1 CP8         0.0671
      8 C8        121.0470   39.6920   80.9670 C.3       1 CP8         0.0415
      9 C9        119.2800   35.6620   81.7290 C.ar      1 CP8        -0.0802
     10 C10       118.8950   34.8820   80.5830 C.ar      1 CP8        -0.0357
     11 O11       120.6250   40.0090   77.8130 O.2       1 CP8        -0.1484
     12 O12       122.3760   38.3450   78.3490 O.2       1 CP8        -0.1484
     13 C13       118.2820   33.5010   80.7450 C.3       1 CP8         0.1070
     14 C14       119.2570   32.3960   80.2780 C.3       1 CP8         0.0700
     15 O15       117.9630   33.2610   82.1120 O.3       1 CP8        -0.3446
     16 N16       118.8740   31.0270   80.7130 N.am      1 CP8        -0.2559
     17 C17       117.3400   32.0110   82.4280 C.3       1 CP8         0.1395
     18 C18       119.5210   29.8940   80.0020 C.3       1 CP8         0.0678
     19 C19       117.9660   30.7770   81.7390 C.2       1 CP8         0.2068
     20 C20       118.6200   29.1080   79.0530 C.ar      1 CP8        -0.0208
     21 O21       117.6500   29.6550   82.1070 O.2       1 CP8        -0.3942
     22 C22       117.4080   29.6540   78.5350 C.ar      1 CP8        -0.0584
     23 C23       118.9880   27.7930   78.6660 C.ar      1 CP8        -0.0584
     24 C24       116.5880   28.8980   77.6580 C.ar      1 CP8        -0.0685
     25 C25       118.1720   27.0370   77.7890 C.ar      1 CP8        -0.0685
     26 C26       116.9710   27.5900   77.2850 C.ar      1 CP8        -0.0687
     27 H1        120.1264   37.5320   82.4730 H         1 CP8         0.0443
     28 H2        118.7939   34.8419   78.3998 H         1 CP8         0.0453
     29 H3        119.0051   37.8470   77.4273 H         1 CP8         0.0653
     30 H4        120.4287   36.7908   77.1364 H         1 CP8         0.0653
     31 H5        120.5882   39.4692   81.9416 H         1 CP8         0.0511
     32 H6        120.7836   40.7159   80.6633 H         1 CP8         0.0511
     33 H7        122.1404   39.6033   81.0477 H         1 CP8         0.0511
     34 H8        119.1390   35.2480   82.7209 H         1 CP8         0.0458
     35 H9        117.3634   33.4497   80.1421 H         1 CP8         0.0749
     36 H10       120.2545   32.6211   80.6834 H         1 CP8         0.0569
     37 H11       119.2959   32.4112   79.1788 H         1 CP8         0.0569
     38 H12       116.2836   32.0705   82.1273 H         1 CP8         0.0806
     39 H13       117.4038   31.8633   83.5162 H         1 CP8         0.0806
     40 H14       119.9059   29.1951   80.7592 H         1 CP8         0.0686
     41 H15       120.3596   30.2975   79.4155 H         1 CP8         0.0686
     42 H16       117.1102   30.6581   78.8147 H         1 CP8         0.0557
     43 H17       119.9064   27.3611   79.0469 H         1 CP8         0.0557
     44 H18       115.6679   29.3237   77.2742 H         1 CP8         0.0599
     45 H19       118.4679   26.0339   77.5037 H         1 CP8         0.0599
     46 H20       116.3461   27.0115   76.6142 H         1 CP8         0.0559
@<TRIPOS>BOND
     1    1    2 ar 
     2    1    3 1  
     3    1    4 ar 
     4    2    5 ar 
     5    2    6 1  
     6    3    7 am 
     7    3    8 1  
     8    4    9 ar 
     9    5   10 ar 
    10    6    7 1  
    11    7   11 2  
    12    7   12 2  
    13    9   10 ar 
    14   10   13 1  
    15   13   14 1  
    16   13   15 1  
    17   14   16 1  
    18   15   17 1  
    19   16   18 1  
    20   16   19 am 
    21   17   19 1  
    22   18   20 1  
    23   19   21 2  
    24   20   22 ar 
    25   20   23 ar 
    26   22   24 ar 
    27   23   25 ar 
    28   24   26 ar 
    29   25   26 ar 
    30    4   27 1  
    31    5   28 1  
    32    6   29 1  
    33    6   30 1  
    34    8   31 1  
    35    8   32 1  
    36    8   33 1  
    37    9   34 1  
    38   13   35 1  
    39   14   36 1  
    40   14   37 1  
    41   17   38 1  
    42   17   39 1  
    43   18   40 1  
    44   18   41 1  
    45   22   42 1  
    46   23   43 1  
    47   24   44 1  
    48   25   45 1  
    49   26   46 1  
@<TRIPOS>SUBSTRUCTURE
     1 CP8         1

