### 
### Created by X-TOOL on Mon Sep 10 21:12:52 2018
### 

@<TRIPOS>MOLECULE
1utz_ligand
   50    53     1     0     0
SMALL
GAST_HUCK


@<TRIPOS>ATOM
      1 S1         42.5820   53.4910   19.9380 S.3       1 PF3        -0.0198
      2 C1         41.4810   54.6540   19.2170 C.2       1 PF3         0.1029
      3 C2         40.1980   54.2890   19.3660 C.2       1 PF3        -0.0441
      4 C3         40.0440   53.0170   20.0830 C.2       1 PF3        -0.0167
      5 C4         41.2300   52.4950   20.4380 C.2       1 PF3         0.0151
      6 C5         38.7370   52.4390   20.3830 C.ar      1 PF3        -0.0278
      7 C6         37.7910   52.1620   19.3670 C.ar      1 PF3        -0.0567
      8 C7         36.5240   51.6360   19.7060 C.ar      1 PF3        -0.0540
      9 C8         36.1660   51.3730   21.0580 C.ar      1 PF3        -0.0121
     10 C9         37.1280   51.6480   22.0560 C.ar      1 PF3        -0.0540
     11 C10        38.3890   52.1710   21.7290 C.ar      1 PF3        -0.0567
     12 C11        34.7990   50.8340   21.4270 C.ar      1 PF3        -0.0014
     13 C12        34.2900   50.9980   22.7380 C.ar      1 PF3        -0.0282
     14 C13        33.0140   50.5000   23.0590 C.ar      1 PF3         0.0094
     15 N1         32.2270   49.8540   22.1570 N.ar      1 PF3        -0.2997
     16 C14        32.7210   49.6980   20.8960 C.ar      1 PF3         0.0094
     17 C15        33.9890   50.1700   20.4950 C.ar      1 PF3        -0.0282
     18 C16        41.9130   55.9150   18.5690 C.2       1 PF3         0.2106
     19 O1         43.0770   56.2570   18.7590 O.2       1 PF3        -0.3903
     20 N2         41.0010   56.6360   17.8630 N.am      1 PF3        -0.2718
     21 C17        41.2460   57.9580   17.2620 C.3       1 PF3         0.0861
     22 C18        39.8250   58.4840   16.9140 C.3       1 PF3         0.0330
     23 C19        38.8120   58.3910   18.0910 C.2       1 PF3         0.0390
     24 O2         38.9940   59.0840   19.0880 O.co2     1 PF3        -0.5688
     25 O3         37.8640   57.6130   17.9960 O.co2     1 PF3        -0.5688
     26 C20        42.1620   58.0270   16.0130 C.ar      1 PF3        -0.0165
     27 C21        42.4630   59.3120   15.4420 C.ar      1 PF3        -0.0580
     28 C22        43.3000   59.4390   14.3080 C.ar      1 PF3        -0.0685
     29 C23        43.8570   58.2820   13.7140 C.ar      1 PF3        -0.0687
     30 C24        43.5730   57.0120   14.2550 C.ar      1 PF3        -0.0685
     31 C25        42.7380   56.8860   15.3900 C.ar      1 PF3        -0.0580
     32 H1         39.3589   54.8751   18.9940 H         1 PF3         0.0526
     33 H2         41.3391   51.5554   20.9776 H         1 PF3         0.0857
     34 H3         38.0385   52.3533   18.3291 H         1 PF3         0.0598
     35 H4         35.8087   51.4282   18.9185 H         1 PF3         0.0631
     36 H5         36.8874   51.4512   23.0945 H         1 PF3         0.0631
     37 H6         39.1055   52.3723   22.5171 H         1 PF3         0.0598
     38 H7         34.8813   51.5054   23.4916 H         1 PF3         0.0707
     39 H8         32.6422   50.6369   24.0680 H         1 PF3         0.0818
     40 H9         32.1082   49.1850   20.1636 H         1 PF3         0.0818
     41 H10        34.3329   50.0209   19.4779 H         1 PF3         0.0707
     42 H11        40.0921   56.2368   17.7425 H         1 PF3         0.1868
     43 H12        41.7014   58.6020   18.0287 H         1 PF3         0.0737
     44 H13        39.4335   57.8932   16.0728 H         1 PF3         0.0475
     45 H14        39.9102   59.5386   16.6131 H         1 PF3         0.0475
     46 H15        42.0393   60.2034   15.8903 H         1 PF3         0.0557
     47 H16        43.5135   60.4187   13.8962 H         1 PF3         0.0599
     48 H17        44.4999   58.3720   12.8459 H         1 PF3         0.0559
     49 H18        43.9974   56.1253   13.7981 H         1 PF3         0.0599
     50 H19        42.5333   55.9005   15.7925 H         1 PF3         0.0557
@<TRIPOS>BOND
     1    1    2 1  
     2    1    5 1  
     3    2    3 2  
     4    2   18 1  
     5    3    4 1  
     6    4    5 2  
     7    4    6 1  
     8    6    7 ar 
     9    6   11 ar 
    10    7    8 ar 
    11    8    9 ar 
    12    9   10 ar 
    13    9   12 1  
    14   10   11 ar 
    15   12   13 ar 
    16   12   17 ar 
    17   13   14 ar 
    18   14   15 ar 
    19   15   16 ar 
    20   16   17 ar 
    21   18   19 2  
    22   18   20 am 
    23   20   21 1  
    24   21   22 1  
    25   21   26 1  
    26   22   23 1  
    27   23   24 ar 
    28   23   25 ar 
    29   26   27 ar 
    30   26   31 ar 
    31   27   28 ar 
    32   28   29 ar 
    33   29   30 ar 
    34   30   31 ar 
    35    3   32 1  
    36    5   33 1  
    37    7   34 1  
    38    8   35 1  
    39   10   36 1  
    40   11   37 1  
    41   13   38 1  
    42   14   39 1  
    43   16   40 1  
    44   17   41 1  
    45   20   42 1  
    46   21   43 1  
    47   22   44 1  
    48   22   45 1  
    49   27   46 1  
    50   28   47 1  
    51   29   48 1  
    52   30   49 1  
    53   31   50 1  
@<TRIPOS>SUBSTRUCTURE
     1 PF3         1

