### 
### Created by X-TOOL on Mon Sep 10 21:12:51 2018
### 

@<TRIPOS>MOLECULE
1uu3_ligand
   64    69     1     0     0
SMALL
GAST_HUCK


@<TRIPOS>ATOM
      1 CBD        23.0590   81.7310   26.8680 C.3       1 LY4         0.0055
      2 CBB        23.0500   80.4080   26.1420 C.3       1 LY4         0.0564
      3 NAW        23.8550   79.3070   26.6980 N.pl3     1 LY4        -0.2592
      4 CAV        25.1760   79.4250   27.0870 C.2       1 LY4         0.0421
      5 CAX        23.5690   78.0220   26.6870 C.ar      1 LY4         0.0710
      6 CAY        22.3960   77.3450   26.2970 C.ar      1 LY4        -0.0411
      7 CAZ        22.3460   75.9380   26.4140 C.ar      1 LY4        -0.0750
      8 CAP        23.4110   75.1900   26.9230 C.ar      1 LY4        -0.0775
      9 CAO        24.5970   75.8670   27.3000 C.ar      1 LY4        -0.0722
     10 CAN        24.6690   77.2950   27.1670 C.ar      1 LY4        -0.0132
     11 CAM        25.6700   78.2160   27.4710 C.2       1 LY4        -0.0050
     12 CAH        27.0560   78.0510   27.8410 C.2       1 LY4         0.0442
     13 CAE        27.9160   77.0440   27.2890 C.2       1 LY4         0.2236
     14 OAF        27.6000   76.1180   26.5140 O.2       1 LY4        -0.3720
     15 NAD        29.1960   77.2020   27.7290 N.am      1 LY4        -0.2037
     16 CAC        29.2110   78.2680   28.5030 C.2       1 LY4         0.2236
     17 OAB        30.2550   78.7090   29.0070 O.2       1 LY4        -0.3720
     18 CAG        27.9200   78.8530   28.6560 C.2       1 LY4         0.0442
     19 CAL        27.5390   80.0400   29.3640 C.2       1 LY4        -0.0050
     20 CAU        26.2840   80.2240   29.8570 C.2       1 LY4         0.0422
     21 CAK        28.2350   81.2450   29.6330 C.ar      1 LY4        -0.0132
     22 CAJ        29.5680   81.6980   29.3750 C.ar      1 LY4        -0.0722
     23 CAI        29.9130   82.9930   29.7780 C.ar      1 LY4        -0.0775
     24 CAQ        28.9970   83.8460   30.4150 C.ar      1 LY4        -0.0750
     25 CAR        27.6940   83.4060   30.6560 C.ar      1 LY4        -0.0411
     26 CAS        27.3270   82.1040   30.2570 C.ar      1 LY4         0.0711
     27 NAT        26.1650   81.4600   30.3850 N.pl3     1 LY4        -0.2571
     28 CBA        24.8740   81.9520   30.9420 C.3       1 LY4         0.0772
     29 CBC        24.0910   82.5240   29.7510 C.3       1 LY4         0.0751
     30 OBE        23.3960   81.3680   29.2220 O.3       1 LY4        -0.3685
     31 CBF        22.3860   81.6410   28.2390 C.3       1 LY4         0.1009
     32 CBG        21.4570   80.4140   28.4010 C.3       1 LY4        -0.0054
     33 NBH        20.6680   80.4240   29.6780 N.4       1 LY4         0.2327
     34 CBI        19.4060   79.6900   29.4820 C.3       1 LY4        -0.0433
     35 CBJ        21.3580   79.6600   30.7500 C.3       1 LY4        -0.0433
     36 H1         22.5234   82.4736   26.2583 H         1 LY4         0.0319
     37 H2         24.1018   82.0528   27.0055 H         1 LY4         0.0319
     38 H3         23.4119   80.5936   25.1200 H         1 LY4         0.0608
     39 H4         22.0062   80.0629   26.1044 H         1 LY4         0.0608
     40 H5         25.7425   80.3551   27.0864 H         1 LY4         0.1003
     41 H6         21.5449   77.8957   25.9130 H         1 LY4         0.0550
     42 H7         21.4483   75.4195   26.0972 H         1 LY4         0.0540
     43 H8         23.3313   74.1140   27.0272 H         1 LY4         0.0519
     44 H9         25.4438   75.3112   27.6860 H         1 LY4         0.0549
     45 H10        29.9770   76.6185   27.5063 H         1 LY4         0.2196
     46 H11        25.4893   79.4800   29.8293 H         1 LY4         0.1003
     47 H12        30.2894   81.0566   28.8818 H         1 LY4         0.0549
     48 H13        30.9198   83.3493   29.5925 H         1 LY4         0.0519
     49 H14        29.3003   84.8416   30.7182 H         1 LY4         0.0540
     50 H15        26.9752   84.0554   31.1425 H         1 LY4         0.0550
     51 H16        24.3165   81.1239   31.4039 H         1 LY4         0.0630
     52 H17        25.0552   82.7356   31.6924 H         1 LY4         0.0630
     53 H18        24.7722   82.9516   29.0005 H         1 LY4         0.0587
     54 H19        23.3789   83.2946   30.0812 H         1 LY4         0.0587
     55 H20        21.8449   82.5756   28.4482 H         1 LY4         0.0650
     56 H21        22.0751   79.5043   28.3810 H         1 LY4         0.0840
     57 H22        20.7522   80.3971   27.5566 H         1 LY4         0.0840
     58 H23        20.4980   81.3748   29.9664 H         1 LY4         0.2029
     59 H24        18.8282   79.6976   30.4180 H         1 LY4         0.0777
     60 H25        19.6267   78.6511   29.1958 H         1 LY4         0.0777
     61 H26        18.8206   80.1732   28.6859 H         1 LY4         0.0777
     62 H27        22.3252   80.1339   30.9736 H         1 LY4         0.0777
     63 H28        21.5254   78.6261   30.4138 H         1 LY4         0.0777
     64 H29        20.7343   79.6546   31.6560 H         1 LY4         0.0777
@<TRIPOS>BOND
     1    1    2 1  
     2   31    1 1  
     3   11    4 2  
     4    5    6 ar 
     5   10    5 ar 
     6    6    7 ar 
     7    8    7 ar 
     8    9    8 ar 
     9   10    9 ar 
    10   11   10 1  
    11   12   11 1  
    12   12   13 1  
    13   18   12 2  
    14   13   14 2  
    15   16   17 2  
    16   18   16 1  
    17   19   18 1  
    18   20   19 2  
    19   21   19 1  
    20   21   22 ar 
    21   26   21 ar 
    22   22   23 ar 
    23   24   23 ar 
    24   25   24 ar 
    25   26   25 ar 
    26   28   29 1  
    27   29   30 1  
    28   30   31 1  
    29   31   32 1  
    30   15   13 am 
    31   16   15 am 
    32    4    3 1  
    33    5    3 1  
    34   27   20 1  
    35   27   26 1  
    36   27   28 1  
    37    3    2 1  
    38   32   33 1  
    39   33   34 1  
    40   33   35 1  
    41    1   36 1  
    42    1   37 1  
    43    2   38 1  
    44    2   39 1  
    45    4   40 1  
    46    6   41 1  
    47    7   42 1  
    48    8   43 1  
    49    9   44 1  
    50   15   45 1  
    51   20   46 1  
    52   22   47 1  
    53   23   48 1  
    54   24   49 1  
    55   25   50 1  
    56   28   51 1  
    57   28   52 1  
    58   29   53 1  
    59   29   54 1  
    60   31   55 1  
    61   32   56 1  
    62   32   57 1  
    63   33   58 1  
    64   34   59 1  
    65   34   60 1  
    66   34   61 1  
    67   35   62 1  
    68   35   63 1  
    69   35   64 1  
@<TRIPOS>SUBSTRUCTURE
     1 LY4         1

