### 
### Created by X-TOOL on Mon Sep 10 21:12:52 2018
### 

@<TRIPOS>MOLECULE
1uu7_ligand
   60    65     1     0     0
SMALL
GAST_HUCK


@<TRIPOS>ATOM
      1 CBD        18.6890   83.9280    4.3630 C.3       1 BI2        -0.0428
      2 NBC        19.9450   83.5080    3.7070 N.4       1 BI2         0.2353
      3 CBG        20.5210   82.2620    4.2770 C.3       1 BI2        -0.0317
      4 CBF        21.9460   82.2090    3.6800 C.3       1 BI2        -0.0074
      5 CBE        22.2500   83.6460    3.2430 C.3       1 BI2        -0.0048
      6 CBB        21.0630   84.4870    3.7610 C.3       1 BI2        -0.0184
      7 CBA        21.4020   85.0010    5.1750 C.3       1 BI2         0.0173
      8 CAY        20.1980   85.4350    5.9630 C.3       1 BI2         0.0589
      9 NAH        19.7680   86.7530    5.4820 N.pl3     1 BI2        -0.2591
     10 CAW        20.5920   87.7290    5.1220 C.2       1 BI2         0.0421
     11 CAE        18.5130   87.1270    5.3790 C.ar      1 BI2         0.0710
     12 CAF        17.3290   86.4700    5.6670 C.ar      1 BI2        -0.0411
     13 CAA        16.1320   87.1340    5.4650 C.ar      1 BI2        -0.0750
     14 CAB        16.1300   88.4520    5.0050 C.ar      1 BI2        -0.0775
     15 CAC        17.3200   89.0890    4.7140 C.ar      1 BI2        -0.0722
     16 CAD        18.5230   88.4440    4.9160 C.ar      1 BI2        -0.0132
     17 CAG        19.8680   88.7840    4.7430 C.2       1 BI2        -0.0050
     18 CAI        20.4090   90.0330    4.3520 C.2       1 BI2         0.0442
     19 CAT        19.9070   91.2750    4.7540 C.2       1 BI2         0.2236
     20 OAZ        18.8500   91.4110    5.3880 O.2       1 BI2        -0.3720
     21 NAU        20.7090   92.2810    4.2890 N.am      1 BI2        -0.2037
     22 CAV        21.7390   91.7180    3.6540 C.2       1 BI2         0.2236
     23 OAX        22.6650   92.3310    3.1180 O.2       1 BI2        -0.3720
     24 CAJ        21.6200   90.3180    3.6780 C.2       1 BI2         0.0442
     25 CAK        22.5690   89.4440    3.0950 C.2       1 BI2        -0.0052
     26 CAM        22.3480   88.2270    2.4390 C.ar      1 BI2        -0.0134
     27 CAP        21.2300   87.4430    2.1230 C.ar      1 BI2        -0.0722
     28 CAQ        21.3870   86.2200    1.4310 C.ar      1 BI2        -0.0775
     29 CAR        22.6620   85.7860    1.0810 C.ar      1 BI2        -0.0750
     30 CAS        23.7700   86.5690    1.3950 C.ar      1 BI2        -0.0413
     31 CAN        23.6040   87.7850    2.0710 C.ar      1 BI2         0.0686
     32 NAO        24.4980   88.6860    2.4720 N.pl3     1 BI2        -0.2735
     33 CAL        23.8890   89.6770    3.0760 C.2       1 BI2         0.0393
     34 H1         17.9378   83.1309    4.2610 H         1 BI2         0.0778
     35 H2         18.3159   84.8466    3.8866 H         1 BI2         0.0778
     36 H3         18.8784   84.1190    5.4296 H         1 BI2         0.0778
     37 H4         19.7185   83.3441    2.7386 H         1 BI2         0.2033
     38 H5         20.5577   82.3137    5.3752 H         1 BI2         0.0814
     39 H6         19.9346   81.3832    3.9706 H         1 BI2         0.0814
     40 H7         21.9779   81.5281    2.8167 H         1 BI2         0.0319
     41 H8         22.6699   81.8746    4.4377 H         1 BI2         0.0319
     42 H9         22.3183   83.7095    2.1470 H         1 BI2         0.0322
     43 H10        23.1930   83.9937    3.6900 H         1 BI2         0.0322
     44 H11        20.8546   85.3451    3.1050 H         1 BI2         0.0852
     45 H12        22.0825   85.8599    5.0788 H         1 BI2         0.0347
     46 H13        21.9060   84.1938    5.7267 H         1 BI2         0.0347
     47 H14        20.4574   85.4975    7.0301 H         1 BI2         0.0609
     48 H15        19.3843   84.7077    5.8254 H         1 BI2         0.0609
     49 H16        21.6797   87.6775    5.1339 H         1 BI2         0.1003
     50 H17        17.3395   85.4537    6.0440 H         1 BI2         0.0550
     51 H18        15.1935   86.6295    5.6644 H         1 BI2         0.0540
     52 H19        15.1907   88.9774    4.8758 H         1 BI2         0.0519
     53 H20        17.3091   90.1007    4.3250 H         1 BI2         0.0549
     54 H21        20.5518   93.2618    4.4042 H         1 BI2         0.2196
     55 H22        20.2394   87.7761    2.4107 H         1 BI2         0.0549
     56 H23        20.5189   85.6237    1.1745 H         1 BI2         0.0519
     57 H24        22.7923   84.8413    0.5655 H         1 BI2         0.0540
     58 H25        24.7634   86.2369    1.1157 H         1 BI2         0.0550
     59 H26        25.5156   88.6150    2.3291 H         1 BI2         0.2306
     60 H27        24.3792   90.5536    3.4970 H         1 BI2         0.1001
@<TRIPOS>BOND
     1    4    3 1  
     2    5    4 1  
     3    6    5 1  
     4    7    6 1  
     5    8    7 1  
     6   10   17 2  
     7   11   12 ar 
     8   11   16 ar 
     9   12   13 ar 
    10   13   14 ar 
    11   15   14 ar 
    12   16   15 ar 
    13   17   16 1  
    14   17   18 1  
    15   18   19 1  
    16   18   24 2  
    17   19   20 2  
    18   22   23 2  
    19   24   22 1  
    20   24   25 1  
    21   25   26 1  
    22   25   33 2  
    23   26   27 ar 
    24   26   31 ar 
    25   27   28 ar 
    26   28   29 ar 
    27   30   29 ar 
    28   31   30 ar 
    29   19   21 am 
    30   22   21 1  
    31   33   32 1  
    32   32   31 1  
    33    9   11 1  
    34    9   10 1  
    35    9    8 1  
    36    6    2 1  
    37    2    3 1  
    38    2    1 1  
    39    1   34 1  
    40    1   35 1  
    41    1   36 1  
    42    2   37 1  
    43    3   38 1  
    44    3   39 1  
    45    4   40 1  
    46    4   41 1  
    47    5   42 1  
    48    5   43 1  
    49    6   44 1  
    50    7   45 1  
    51    7   46 1  
    52    8   47 1  
    53    8   48 1  
    54   10   49 1  
    55   12   50 1  
    56   13   51 1  
    57   14   52 1  
    58   15   53 1  
    59   21   54 1  
    60   27   55 1  
    61   28   56 1  
    62   29   57 1  
    63   30   58 1  
    64   32   59 1  
    65   33   60 1  
@<TRIPOS>SUBSTRUCTURE
     1 BI2         1

