### 
### Created by X-TOOL on Mon Sep 10 21:12:51 2018
### 

@<TRIPOS>MOLECULE
1uu8_ligand
   56    60     1     0     0
SMALL
GAST_HUCK


@<TRIPOS>ATOM
      1 CBD        21.2110   82.7320   28.9170 C.3       1 BI1        -0.0433
      2 NBC        22.0130   83.1720   27.7670 N.4       1 BI1         0.2310
      3 CBE        21.3240   83.3210   26.4750 C.3       1 BI1        -0.0433
      4 CBB        23.4430   82.8110   27.7940 C.3       1 BI1        -0.0299
      5 CBA        24.0330   82.4730   26.4210 C.3       1 BI1         0.0144
      6 CAY        23.5990   81.1010   25.8940 C.3       1 BI1         0.0586
      7 NAH        24.3450   79.9750   26.4790 N.pl3     1 BI1        -0.2591
      8 CAW        25.6270   80.0290   26.8540 C.2       1 BI1         0.0421
      9 CAE        23.8380   78.7500   26.6070 C.ar      1 BI1         0.0710
     10 CAF        22.6000   78.1790   26.3290 C.ar      1 BI1        -0.0411
     11 CAA        22.4150   76.8160   26.5390 C.ar      1 BI1        -0.0750
     12 CAB        23.4610   76.0360   27.0260 C.ar      1 BI1        -0.0775
     13 CAC        24.6950   76.6180   27.3060 C.ar      1 BI1        -0.0722
     14 CAD        24.8860   77.9790   27.0950 C.ar      1 BI1        -0.0132
     15 CAG        25.9910   78.8060   27.2390 C.2       1 BI1        -0.0050
     16 CAI        27.3070   78.5400   27.6120 C.2       1 BI1         0.0442
     17 CAT        28.0140   77.4010   27.2330 C.2       1 BI1         0.2236
     18 OAZ        27.6040   76.4380   26.5910 O.2       1 BI1        -0.3720
     19 NAU        29.2570   77.5830   27.6770 N.am      1 BI1        -0.2037
     20 CAV        29.4330   78.7400   28.3140 C.2       1 BI1         0.2236
     21 OAX        30.4810   79.1680   28.7910 O.2       1 BI1        -0.3720
     22 CAJ        28.1920   79.3690   28.2920 C.2       1 BI1         0.0442
     23 CAK        27.9160   80.5880   28.9100 C.2       1 BI1        -0.0052
     24 CAM        26.8090   81.0660   29.5920 C.ar      1 BI1        -0.0134
     25 CAP        25.5640   80.5180   29.8900 C.ar      1 BI1        -0.0722
     26 CAQ        24.6270   81.2670   30.5960 C.ar      1 BI1        -0.0775
     27 CAR        24.9300   82.5620   31.0100 C.ar      1 BI1        -0.0750
     28 CAS        26.1750   83.1100   30.7190 C.ar      1 BI1        -0.0413
     29 CAN        27.1060   82.3550   30.0100 C.ar      1 BI1         0.0686
     30 NAO        28.3460   82.5940   29.5830 N.pl3     1 BI1        -0.2735
     31 CAL        28.8430   81.5430   28.9250 C.2       1 BI1         0.0393
     32 H1         20.1689   83.0579   28.7834 H         1 BI1         0.0777
     33 H2         21.6180   83.1738   29.8385 H         1 BI1         0.0777
     34 H3         21.2456   81.6350   28.9900 H         1 BI1         0.0777
     35 H4         22.0999   84.1489   27.9998 H         1 BI1         0.2028
     36 H5         22.0433   83.6536   25.7121 H         1 BI1         0.0777
     37 H6         20.5210   84.0665   26.5715 H         1 BI1         0.0777
     38 H7         20.8929   82.3543   26.1757 H         1 BI1         0.0777
     39 H8         24.0049   83.6597   28.2112 H         1 BI1         0.0815
     40 H9         23.5648   81.9341   28.4469 H         1 BI1         0.0815
     41 H10        25.1301   82.4851   26.5002 H         1 BI1         0.0343
     42 H11        23.7086   83.2409   25.7033 H         1 BI1         0.0343
     43 H12        23.7471   81.0857   24.8041 H         1 BI1         0.0609
     44 H13        22.5314   80.9645   26.1210 H         1 BI1         0.0609
     45 H14        26.2609   80.9144   26.8463 H         1 BI1         0.1003
     46 H15        21.7876   78.7900   25.9525 H         1 BI1         0.0550
     47 H16        21.4553   76.3606   26.3232 H         1 BI1         0.0540
     48 H17        23.3145   74.9741   27.1874 H         1 BI1         0.0519
     49 H18        25.5067   76.0098   27.6885 H         1 BI1         0.0549
     50 H19        29.9887   76.9144   27.5447 H         1 BI1         0.2196
     51 H20        25.3249   79.5095   29.5726 H         1 BI1         0.0549
     52 H21        23.6570   80.8405   30.8247 H         1 BI1         0.0519
     53 H22        24.1965   83.1420   31.5583 H         1 BI1         0.0540
     54 H23        26.4184   84.1160   31.0413 H         1 BI1         0.0550
     55 H24        28.8553   83.4754   29.7402 H         1 BI1         0.2306
     56 H25        29.8342   81.4788   28.4785 H         1 BI1         0.1001
@<TRIPOS>BOND
     1    5    4 1  
     2    6    5 1  
     3    8   15 2  
     4    9   10 ar 
     5    9   14 ar 
     6   10   11 ar 
     7   11   12 ar 
     8   13   12 ar 
     9   14   13 ar 
    10   14   15 1  
    11   15   16 1  
    12   16   17 1  
    13   16   22 2  
    14   17   18 2  
    15   20   21 2  
    16   22   20 1  
    17   22   23 1  
    18   23   24 1  
    19   23   31 2  
    20   24   25 ar 
    21   24   29 ar 
    22   25   26 ar 
    23   26   27 ar 
    24   28   27 ar 
    25   29   28 ar 
    26   17   19 am 
    27   20   19 1  
    28    7    8 1  
    29    7    9 1  
    30    7    6 1  
    31    4    2 1  
    32    2    3 1  
    33    2    1 1  
    34   31   30 1  
    35   30   29 1  
    36    1   32 1  
    37    1   33 1  
    38    1   34 1  
    39    2   35 1  
    40    3   36 1  
    41    3   37 1  
    42    3   38 1  
    43    4   39 1  
    44    4   40 1  
    45    5   41 1  
    46    5   42 1  
    47    6   43 1  
    48    6   44 1  
    49    8   45 1  
    50   10   46 1  
    51   11   47 1  
    52   12   48 1  
    53   13   49 1  
    54   19   50 1  
    55   25   51 1  
    56   26   52 1  
    57   27   53 1  
    58   28   54 1  
    59   30   55 1  
    60   31   56 1  
@<TRIPOS>SUBSTRUCTURE
     1 BI1         1

