### 
### Created by X-TOOL on Mon Sep 10 21:12:51 2018
### 

@<TRIPOS>MOLECULE
1uu9_ligand
   50    54     1     0     0
SMALL
GAST_HUCK


@<TRIPOS>ATOM
      1 NBC        22.6160   83.3560   28.2110 N.4       1 BI3         0.2186
      2 CBB        23.4400   82.3390   27.5390 C.3       1 BI3        -0.0329
      3 CBA        22.5360   81.3210   26.8390 C.3       1 BI3         0.0143
      4 CAY        23.3280   80.3940   25.9120 C.3       1 BI3         0.0586
      5 NAH        24.1130   79.3600   26.6060 N.pl3     1 BI3        -0.2591
      6 CAW        25.3650   79.5310   27.0370 C.2       1 BI3         0.0421
      7 CAE        23.7190   78.0900   26.7040 C.ar      1 BI3         0.0710
      8 CAF        22.5550   77.4040   26.3670 C.ar      1 BI3        -0.0411
      9 CAA        22.4960   76.0240   26.5390 C.ar      1 BI3        -0.0750
     10 CAB        23.5950   75.3400   27.0540 C.ar      1 BI3        -0.0775
     11 CAC        24.7490   76.0370   27.4000 C.ar      1 BI3        -0.0722
     12 CAD        24.8180   77.4170   27.2240 C.ar      1 BI3        -0.0132
     13 CAG        25.8300   78.3430   27.4250 C.2       1 BI3        -0.0050
     14 CAI        27.1790   78.1790   27.7460 C.2       1 BI3         0.0442
     15 CAT        27.9500   77.1160   27.2840 C.2       1 BI3         0.2236
     16 OAZ        27.5760   76.1550   26.6150 O.2       1 BI3        -0.3720
     17 NAU        29.1970   77.3600   27.6830 N.am      1 BI3        -0.2037
     18 CAV        29.3160   78.4950   28.3720 C.2       1 BI3         0.2236
     19 OAX        30.3570   78.9720   28.8250 O.2       1 BI3        -0.3720
     20 CAJ        28.0340   79.0350   28.4340 C.2       1 BI3         0.0442
     21 CAK        27.7260   80.2170   29.1110 C.2       1 BI3        -0.0052
     22 CAM        26.5630   80.7200   29.6780 C.ar      1 BI3        -0.0134
     23 CAP        25.3220   80.1590   29.9710 C.ar      1 BI3        -0.0722
     24 CAQ        24.3180   80.9390   30.5390 C.ar      1 BI3        -0.0775
     25 CAR        24.5460   82.2840   30.8200 C.ar      1 BI3        -0.0750
     26 CAS        25.7860   82.8490   30.5360 C.ar      1 BI3        -0.0413
     27 CAN        26.7840   82.0610   29.9710 C.ar      1 BI3         0.0686
     28 NAO        28.0400   82.3060   29.5940 N.pl3     1 BI3        -0.2735
     29 CAL        28.6100   81.2130   29.0800 C.2       1 BI3         0.0393
     30 H1         23.2151   84.0239   28.6704 H         1 BI3         0.1994
     31 H2         22.0234   82.9107   28.8941 H         1 BI3         0.1994
     32 H3         22.0450   83.8302   27.5290 H         1 BI3         0.1994
     33 H4         24.0867   82.8263   26.7945 H         1 BI3         0.0814
     34 H5         24.0631   81.8228   28.2842 H         1 BI3         0.0814
     35 H6         21.7857   81.8621   26.2439 H         1 BI3         0.0343
     36 H7         22.0292   80.7120   27.6020 H         1 BI3         0.0343
     37 H8         24.0201   81.0105   25.3195 H         1 BI3         0.0609
     38 H9         22.6170   79.8916   25.2396 H         1 BI3         0.0609
     39 H10        25.9098   80.4735   27.0665 H         1 BI3         0.1003
     40 H11        21.7000   77.9414   25.9731 H         1 BI3         0.0550
     41 H12        21.5958   75.4820   26.2725 H         1 BI3         0.0540
     42 H13        23.5514   74.2649   27.1853 H         1 BI3         0.0519
     43 H14        25.5990   75.5028   27.8088 H         1 BI3         0.0549
     44 H15        29.9667   76.7528   27.4856 H         1 BI3         0.2196
     45 H16        25.1374   79.1126   29.7563 H         1 BI3         0.0549
     46 H17        23.3540   80.4971   30.7636 H         1 BI3         0.0519
     47 H18        23.7604   82.8887   31.2584 H         1 BI3         0.0540
     48 H19        25.9727   83.8945   30.7532 H         1 BI3         0.0550
     49 H20        28.5087   83.2184   29.6871 H         1 BI3         0.2306
     50 H21        29.6280   81.1470   28.6990 H         1 BI3         0.1001
@<TRIPOS>BOND
     1    3    2 1  
     2    4    3 1  
     3    6   13 2  
     4    7    8 ar 
     5    7   12 ar 
     6    8    9 ar 
     7    9   10 ar 
     8   11   10 ar 
     9   12   11 ar 
    10   12   13 1  
    11   13   14 1  
    12   14   15 1  
    13   14   20 2  
    14   15   16 2  
    15   18   19 2  
    16   20   18 1  
    17   20   21 1  
    18   21   22 1  
    19   21   29 2  
    20   22   23 ar 
    21   22   27 ar 
    22   23   24 ar 
    23   24   25 ar 
    24   26   25 ar 
    25   27   26 ar 
    26   18   17 am 
    27   15   17 1  
    28    5    6 1  
    29    5    7 1  
    30    5    4 1  
    31   29   28 1  
    32   28   27 1  
    33    2    1 1  
    34    1   30 1  
    35    1   31 1  
    36    1   32 1  
    37    2   33 1  
    38    2   34 1  
    39    3   35 1  
    40    3   36 1  
    41    4   37 1  
    42    4   38 1  
    43    6   39 1  
    44    8   40 1  
    45    9   41 1  
    46   10   42 1  
    47   11   43 1  
    48   17   44 1  
    49   23   45 1  
    50   24   46 1  
    51   25   47 1  
    52   26   48 1  
    53   28   49 1  
    54   29   50 1  
@<TRIPOS>SUBSTRUCTURE
     1 BI3         1

