### 
### Created by X-TOOL on Mon Sep 10 21:12:51 2018
### 

@<TRIPOS>MOLECULE
1uv5_ligand
   32    35     1     0     0
SMALL
GAST_HUCK


@<TRIPOS>ATOM
      1 C1         94.4050   70.4080    9.0940 C.ar      1 BRW         0.0241
      2 C2         93.6770   69.2510    9.6020 C.2       1 BRW         0.1287
      3 C3         95.8080   69.9820    8.9830 C.ar      1 BRW         0.0724
      4 N4         95.9110   68.6700    9.4220 N.pl3     1 BRW        -0.2630
      5 C5         96.7740   70.8130    8.5200 C.ar      1 BRW        -0.0386
      6 C7         96.3780   72.1900    8.0950 C.ar      1 BRW        -0.0723
      7 C9         95.0750   72.5910    8.1940 C.ar      1 BRW        -0.0740
      8 C11        94.0260   71.6650    8.7170 C.ar      1 BRW        -0.0644
      9 C13        94.6330   68.1680    9.7880 C.2       1 BRW         0.1048
     10 C14        94.4910   66.9140   10.1660 C.2       1 BRW         0.0626
     11 C15        95.6430   65.9960   10.3510 C.2       1 BRW         0.2013
     12 N16        95.1640   64.7120   10.7300 N.am      1 BRW        -0.2437
     13 C17        93.7740   64.7930   10.7470 C.ar      1 BRW         0.0647
     14 C18        93.3300   66.0630   10.4740 C.ar      1 BRW        -0.0097
     15 C19        92.8460   63.6800   11.0240 C.ar      1 BRW        -0.0398
     16 C20        91.5070   63.9220   10.9670 C.ar      1 BRW        -0.0089
     17 C21        91.0280   65.2800   10.6910 C.ar      1 BRW        -0.0761
     18 C22        91.8820   66.2900   10.4400 C.ar      1 BRW        -0.0768
     19 O23        96.8360   66.2770   10.2010 O.2       1 BRW        -0.3975
     20 N24        92.4400   69.1550    9.8700 N.2       1 BRW        -0.1168
     21 O39        91.4560   70.0230    9.7820 O.3       1 BRW        -0.2294
     22 BR21       90.2400   62.5480   11.2000 Br        1 BRW        -0.0609
     23 H1         96.7897   68.1353    9.4751 H         1 BRW         0.2204
     24 H2         97.8062   70.4873    8.4597 H         1 BRW         0.0540
     25 H3         97.1258   72.8723    7.7073 H         1 BRW         0.0575
     26 H4         94.7993   73.5940    7.8890 H         1 BRW         0.0520
     27 H5         92.9923   71.9819    8.7952 H         1 BRW         0.0580
     28 H6         95.7178   63.9071   10.9430 H         1 BRW         0.2233
     29 H7         93.2212   62.6925   11.2672 H         1 BRW         0.0505
     30 H8         89.9617   65.4752   10.6890 H         1 BRW         0.0494
     31 H9         91.4967   67.2771   10.2114 H         1 BRW         0.0510
     32 H10        91.3664   70.3081    8.8802 H         1 BRW         0.2973
@<TRIPOS>BOND
     1    1    2 1  
     2    1    3 ar 
     3    1    8 ar 
     4    2    9 1  
     5    2   20 2  
     6    3    4 1  
     7    3    5 ar 
     8    4    9 1  
     9    5    6 ar 
    10    6    7 ar 
    11    7    8 ar 
    12    9   10 2  
    13   10   11 1  
    14   10   14 1  
    15   11   12 am 
    16   11   19 2  
    17   12   13 1  
    18   13   14 ar 
    19   13   15 ar 
    20   14   18 ar 
    21   15   16 ar 
    22   16   17 ar 
    23   16   22 1  
    24   17   18 ar 
    25   20   21 1  
    26    4   23 1  
    27    5   24 1  
    28    6   25 1  
    29    7   26 1  
    30    8   27 1  
    31   12   28 1  
    32   15   29 1  
    33   17   30 1  
    34   18   31 1  
    35   21   32 1  
@<TRIPOS>SUBSTRUCTURE
     1 BRW         1

