### 
### Created by X-TOOL on Mon Sep 10 21:12:52 2018
### 

@<TRIPOS>MOLECULE
1uv6_ligand
   25    24     1     0     0
SMALL
GAST_HUCK


@<TRIPOS>ATOM
      1 N1        138.2390  125.0330   87.5690 N.4       1 CCE         0.2387
      2 C2        138.5130  124.8230   86.1350 C.3       1 CCE        -0.0025
      3 C3        138.5250  123.3600   85.6930 C.3       1 CCE         0.1170
      4 O4        138.8370  123.2630   84.2910 O.3       1 CCE        -0.2587
      5 C5        137.9650  122.5310   83.3580 C.2       1 CCE         0.3171
      6 O7        138.3260  122.4610   82.2050 O.2       1 CCE        -0.3777
      7 C8        137.0350  124.2980   88.0220 C.3       1 CCE        -0.0417
      8 C9        139.4300  124.6350   88.3690 C.3       1 CCE        -0.0417
      9 C10       137.9670  126.4770   87.7550 C.3       1 CCE        -0.0417
     10 N6        136.8360  121.9630   83.7780 N.am      1 CCE        -0.2763
     11 H1        139.4976  125.2574   85.9074 H         1 CCE         0.0841
     12 H2        137.7380  125.3486   85.5578 H         1 CCE         0.0841
     13 H3        137.5344  122.9179   85.8755 H         1 CCE         0.0665
     14 H4        139.2833  122.8124   86.2719 H         1 CCE         0.0665
     15 H5        136.8727  124.4854   89.0937 H         1 CCE         0.0778
     16 H6        137.1793  123.2202   87.8560 H         1 CCE         0.0778
     17 H7        136.1592  124.6427   87.4528 H         1 CCE         0.0778
     18 H8        140.3110  125.1916   88.0167 H         1 CCE         0.0778
     19 H9        139.6069  123.5558   88.2511 H         1 CCE         0.0778
     20 H10       139.2521  124.8637   89.4301 H         1 CCE         0.0778
     21 H11       137.0864  126.7636   87.1614 H         1 CCE         0.0778
     22 H12       138.8386  127.0601   87.4229 H         1 CCE         0.0778
     23 H13       137.7739  126.6797   88.8188 H         1 CCE         0.0778
     24 H14       136.2543  121.4691   83.1317 H         1 CCE         0.1831
     25 H15       136.5700  122.0304   84.7396 H         1 CCE         0.1831
@<TRIPOS>BOND
     1    1    2 1  
     2    1    7 1  
     3    1    8 1  
     4    1    9 1  
     5    2    3 1  
     6    3    4 1  
     7    4    5 1  
     8    5    6 2  
     9    5   10 am 
    10    2   11 1  
    11    2   12 1  
    12    3   13 1  
    13    3   14 1  
    14    7   15 1  
    15    7   16 1  
    16    7   17 1  
    17    8   18 1  
    18    8   19 1  
    19    8   20 1  
    20    9   21 1  
    21    9   22 1  
    22    9   23 1  
    23   10   24 1  
    24   10   25 1  
@<TRIPOS>SUBSTRUCTURE
     1 CCE         1

