### 
### Created by X-TOOL on Mon Sep 10 21:12:51 2018
### 

@<TRIPOS>MOLECULE
1uvr_ligand
   53    57     1     0     0
SMALL
GAST_HUCK


@<TRIPOS>ATOM
      1 CB0        87.4040   16.4900   14.1670 C.3       1 BI8         0.0428
      2 NBC        84.4180   21.8000   12.3560 N.4       1 BI8         0.2186
      3 CBB        83.1690   21.1020   12.0200 C.3       1 BI8        -0.0329
      4 CBA        83.2120   20.6520   10.5590 C.3       1 BI8         0.0143
      5 CAY        81.8490   20.1280   10.1040 C.3       1 BI8         0.0586
      6 NAH        81.3960   18.8960   10.7710 N.pl3     1 BI8        -0.2591
      7 CAW        82.1790   17.8820   11.1540 C.2       1 BI8         0.0421
      8 CAE        80.1010   18.6290   10.9500 C.ar      1 BI8         0.0710
      9 CAF        78.9210   19.3190   10.6880 C.ar      1 BI8        -0.0411
     10 CAA        77.6960   18.7140   10.9550 C.ar      1 BI8        -0.0750
     11 CAB        77.6610   17.4290   11.4880 C.ar      1 BI8        -0.0775
     12 CAC        78.8470   16.7490   11.7570 C.ar      1 BI8        -0.0722
     13 CAD        80.0750   17.3480   11.4840 C.ar      1 BI8        -0.0132
     14 CAG        81.3860   16.9080   11.6000 C.2       1 BI8        -0.0050
     15 CAI        81.8920   15.6350   11.8570 C.2       1 BI8         0.0442
     16 CAT        81.2610   14.4680   11.4410 C.2       1 BI8         0.2236
     17 OAZ        80.2110   14.3690   10.8080 O.2       1 BI8        -0.3720
     18 NAU        82.0450   13.4660   11.8340 N.am      1 BI8        -0.2037
     19 CAV        83.1430   13.8710   12.4690 C.2       1 BI8         0.2236
     20 OAX        84.0320   13.1500   12.9200 O.2       1 BI8        -0.3720
     21 CAJ        83.0700   15.2610   12.4970 C.2       1 BI8         0.0442
     22 CAK        84.0190   16.0860   13.0940 C.2       1 BI8        -0.0050
     23 CAM        83.9420   17.3390   13.6860 C.ar      1 BI8        -0.0132
     24 CAP        82.8910   18.2270   13.8920 C.ar      1 BI8        -0.0722
     25 CAQ        83.1140   19.4350   14.5460 C.ar      1 BI8        -0.0775
     26 CAR        84.3930   19.7570   14.9930 C.ar      1 BI8        -0.0750
     27 CAS        85.4480   18.8730   14.7940 C.ar      1 BI8        -0.0411
     28 CAN        85.2120   17.6660   14.1450 C.ar      1 BI8         0.0708
     29 NAO        85.9680   16.6140   13.8290 N.pl3     1 BI8        -0.2623
     30 CAL        85.2770   15.6620   13.2000 C.2       1 BI8         0.0418
     31 H1         87.7871   15.5292   13.7928 H         1 BI8         0.0571
     32 H2         87.5288   16.5342   15.2590 H         1 BI8         0.0571
     33 H3         87.9631   17.3144   13.7004 H         1 BI8         0.0571
     34 H4         84.3887   22.0962   13.3191 H         1 BI8         0.1994
     35 H5         84.5235   22.6058   11.7597 H         1 BI8         0.1994
     36 H6         85.1984   21.1767   12.2198 H         1 BI8         0.1994
     37 H7         82.3176   21.7823   12.1689 H         1 BI8         0.0814
     38 H8         83.0541   20.2228   12.6709 H         1 BI8         0.0814
     39 H9         83.9588   19.8515   10.4514 H         1 BI8         0.0343
     40 H10        83.4971   21.5067    9.9280 H         1 BI8         0.0343
     41 H11        81.9043   19.9292    9.0235 H         1 BI8         0.0609
     42 H12        81.1019   20.9125   10.2948 H         1 BI8         0.0609
     43 H13        83.2668   17.8566   11.1096 H         1 BI8         0.1003
     44 H14        78.9557   20.3220   10.2783 H         1 BI8         0.0550
     45 H15        76.7722   19.2422   10.7484 H         1 BI8         0.0540
     46 H16        76.7080   16.9556   11.6946 H         1 BI8         0.0519
     47 H17        78.8142   15.7514   12.1798 H         1 BI8         0.0549
     48 H18        81.8301   12.5035   11.6684 H         1 BI8         0.2196
     49 H19        81.8958   17.9773   13.5422 H         1 BI8         0.0549
     50 H20        82.2932   20.1244   14.7073 H         1 BI8         0.0519
     51 H21        84.5669   20.7003   15.4980 H         1 BI8         0.0540
     52 H22        86.4442   19.1223   15.1413 H         1 BI8         0.0550
     53 H23        85.6695   14.7124   12.8394 H         1 BI8         0.1002
@<TRIPOS>BOND
     1   29    1 1  
     2    3    2 1  
     3    4    3 1  
     4    5    4 1  
     5    6    5 1  
     6    7    6 1  
     7    8    6 1  
     8   14    7 2  
     9    8    9 ar 
    10   13    8 ar 
    11    9   10 ar 
    12   11   10 ar 
    13   12   11 ar 
    14   13   12 ar 
    15   14   13 1  
    16   15   14 1  
    17   15   16 1  
    18   21   15 2  
    19   16   17 2  
    20   18   16 am 
    21   19   18 am 
    22   19   20 2  
    23   21   19 1  
    24   22   21 1  
    25   23   22 1  
    26   22   30 2  
    27   23   24 ar 
    28   28   23 ar 
    29   24   25 ar 
    30   26   25 ar 
    31   27   26 ar 
    32   28   27 ar 
    33   29   28 1  
    34   30   29 1  
    35    1   31 1  
    36    1   32 1  
    37    1   33 1  
    38    2   34 1  
    39    2   35 1  
    40    2   36 1  
    41    3   37 1  
    42    3   38 1  
    43    4   39 1  
    44    4   40 1  
    45    5   41 1  
    46    5   42 1  
    47    7   43 1  
    48    9   44 1  
    49   10   45 1  
    50   11   46 1  
    51   12   47 1  
    52   18   48 1  
    53   24   49 1  
    54   25   50 1  
    55   26   51 1  
    56   27   52 1  
    57   30   53 1  
@<TRIPOS>SUBSTRUCTURE
     1 BI8         1

