### 
### Created by X-TOOL on Mon Sep 10 21:12:46 2018
### 

@<TRIPOS>MOLECULE
1uvs_ligand
   67    69     1     0     0
SMALL
GAST_HUCK


@<TRIPOS>ATOM
      1 C1        -14.2180   71.3980  179.0320 C.3       1 I11        -0.0513
      2 C2        -15.2580   70.4900  178.3270 C.3       1 I11        -0.0290
      3 C3        -14.6890   69.0660  178.1910 C.3       1 I11         0.0956
      4 C4        -13.4110   69.0900  177.3340 C.3       1 I11        -0.0290
      5 C5        -12.3690   69.9550  178.0720 C.3       1 I11        -0.0513
      6 C6        -12.8880   71.3990  178.2650 C.3       1 I11        -0.0529
      7 S19       -15.9430   67.9520  177.4860 S.o2      1 I11         0.0438
      8 O43       -17.2430   68.2660  178.0360 O.2       1 I11        -0.1551
      9 O44       -15.5690   66.6470  177.9620 O.2       1 I11        -0.1551
     10 N20       -16.1320   67.9780  175.8560 N.am      1 I11        -0.2327
     11 C21       -15.6040   66.9480  175.1880 C.3       1 I11         0.1154
     12 C22       -14.7440   67.2670  174.0370 C.2       1 I11         0.1969
     13 O42       -14.6660   68.4630  173.7340 O.2       1 I11        -0.3952
     14 N23       -14.0700   66.2960  173.3860 N.am      1 I11        -0.2642
     15 C24       -13.3320   66.6720  172.1910 C.3       1 I11         0.1328
     16 C25       -14.0640   66.1050  170.9500 C.3       1 I11         0.0075
     17 C26       -13.9150   67.0190  169.7090 C.3       1 I11         0.0306
     18 N27       -14.4510   68.3700  169.8780 N.pl3     1 I11        -0.3143
     19 C28       -15.6700   68.6850  169.4830 C.ar      1 I11         0.0585
     20 C29       -16.7890   67.9140  169.8150 C.ar      1 I11        -0.0169
     21 C30       -18.0460   68.2720  169.2880 C.ar      1 I11        -0.0037
     22 N31       -18.2010   69.3070  168.4930 N.ar      1 I11        -0.3162
     23 C32       -17.2510   70.2210  168.3850 C.ar      1 I11        -0.0037
     24 C33       -15.9320   69.9520  168.7760 C.ar      1 I11        -0.0169
     25 C34       -11.8720   66.2470  172.2530 C.2       1 I11         0.2042
     26 O41       -11.4940   65.2330  171.6780 O.2       1 I11        -0.3943
     27 N35       -11.0460   66.9060  173.1060 N.am      1 I11        -0.2713
     28 C36       -11.0360   68.3670  173.1000 C.3       1 I11         0.0339
     29 C37       -10.9680   68.8510  174.5720 C.3       1 I11        -0.0325
     30 C38        -9.8430   68.1980  175.4210 C.3       1 I11        -0.0494
     31 C39        -9.1660   67.0120  174.7040 C.3       1 I11        -0.0325
     32 C40       -10.2470   66.1270  174.0530 C.3       1 I11         0.0339
     33 H1        -14.0458   71.0247  180.0523 H         1 I11         0.0266
     34 H2        -14.6085   72.4253  179.0784 H         1 I11         0.0266
     35 H3        -15.4790   70.8933  177.3277 H         1 I11         0.0284
     36 H4        -16.1821   70.4600  178.9229 H         1 I11         0.0284
     37 H5        -14.4256   68.6974  179.1934 H         1 I11         0.0554
     38 H6        -13.6291   69.5258  176.3479 H         1 I11         0.0284
     39 H7        -13.0262   68.0675  177.2060 H         1 I11         0.0284
     40 H8        -11.4406   69.9817  177.4826 H         1 I11         0.0266
     41 H9        -12.1651   69.5109  179.0575 H         1 I11         0.0266
     42 H10       -12.1441   71.9775  178.8323 H         1 I11         0.0265
     43 H11       -13.0396   71.8632  177.2794 H         1 I11         0.0265
     44 H12       -16.6136   68.7204  175.3903 H         1 I11         0.1698
     45 H13       -16.4361   66.3304  174.8190 H         1 I11         0.0717
     46 H14       -15.0020   66.3645  175.9001 H         1 I11         0.0717
     47 H15       -14.0778   65.3513  173.7138 H         1 I11         0.1883
     48 H16       -13.3466   67.7694  172.1176 H         1 I11         0.0800
     49 H17       -15.1333   66.0021  171.1868 H         1 I11         0.0332
     50 H18       -13.6441   65.1163  170.7131 H         1 I11         0.0332
     51 H19       -14.4416   66.5440  168.8681 H         1 I11         0.0519
     52 H20       -12.8443   67.1023  169.4711 H         1 I11         0.0519
     53 H21       -13.8623   69.0928  170.3160 H         1 I11         0.1798
     54 H22       -16.6907   67.0542  170.4678 H         1 I11         0.0610
     55 H23       -18.9128   67.6746  169.5466 H         1 I11         0.0780
     56 H24       -17.4975   71.1982  167.9859 H         1 I11         0.0780
     57 H25       -15.1315   70.6520  168.5656 H         1 I11         0.0610
     58 H26       -11.9532   68.7448  172.6247 H         1 I11         0.0522
     59 H27       -10.1587   68.7322  172.5459 H         1 I11         0.0522
     60 H28       -11.9324   68.6263  175.0510 H         1 I11         0.0285
     61 H29       -10.8055   69.9389  174.5674 H         1 I11         0.0285
     62 H30       -10.2790   67.8363  176.3639 H         1 I11         0.0267
     63 H31        -9.0796   68.9595  175.6384 H         1 I11         0.0267
     64 H32        -8.5955   66.4185  175.4336 H         1 I11         0.0285
     65 H33        -8.4854   67.3917  173.9278 H         1 I11         0.0285
     66 H34        -9.7617   65.2964  173.5196 H         1 I11         0.0522
     67 H35       -10.9055   65.7245  174.8368 H         1 I11         0.0522
@<TRIPOS>BOND
     1    1    2 1  
     2    1    6 1  
     3    2    3 1  
     4    3    4 1  
     5    3    7 1  
     6    4    5 1  
     7    5    6 1  
     8    7    8 2  
     9    7    9 2  
    10    7   10 am 
    11   10   11 1  
    12    1   33 1  
    13   11   12 1  
    14   12   13 2  
    15   12   14 am 
    16   14   15 1  
    17    1   34 1  
    18   15   16 1  
    19   15   25 1  
    20   16   17 1  
    21   17   18 1  
    22   18   19 1  
    23    2   35 1  
    24   19   20 ar 
    25   19   24 ar 
    26   20   21 ar 
    27   21   22 ar 
    28   22   23 ar 
    29    2   36 1  
    30   23   24 ar 
    31   25   26 2  
    32   25   27 am 
    33   27   28 1  
    34   27   32 1  
    35   28   29 1  
    36   29   30 1  
    37   30   31 1  
    38   31   32 1  
    39    3   37 1  
    40    4   38 1  
    41    4   39 1  
    42    5   40 1  
    43    5   41 1  
    44    6   42 1  
    45    6   43 1  
    46   10   44 1  
    47   11   45 1  
    48   11   46 1  
    49   14   47 1  
    50   15   48 1  
    51   16   49 1  
    52   16   50 1  
    53   17   51 1  
    54   17   52 1  
    55   18   53 1  
    56   20   54 1  
    57   21   55 1  
    58   23   56 1  
    59   24   57 1  
    60   28   58 1  
    61   28   59 1  
    62   29   60 1  
    63   29   61 1  
    64   30   62 1  
    65   30   63 1  
    66   31   64 1  
    67   31   65 1  
    68   32   66 1  
    69   32   67 1  
@<TRIPOS>SUBSTRUCTURE
     1 I11         1

