### 
### Created by X-TOOL on Mon Sep 10 21:12:46 2018
### 

@<TRIPOS>MOLECULE
1uvt_ligand
   48    50     1     0     0
SMALL
GAST_HUCK


@<TRIPOS>ATOM
      1 N1         45.6890   56.1380   40.4510 N.ar      1 I48        -0.3162
      2 C2         47.0040   55.6120   40.5200 C.ar      1 I48        -0.0037
      3 C3         48.0910   56.4960   40.4990 C.ar      1 I48        -0.0169
      4 C4         47.9000   57.8890   40.4890 C.ar      1 I48         0.0586
      5 C5         46.6050   58.4010   40.3980 C.ar      1 I48        -0.0169
      6 C6         45.5020   57.5480   40.4580 C.ar      1 I48        -0.0037
      7 NA1        49.0120   58.7930   40.4820 N.pl3     1 I48        -0.3120
      8 CA2        50.3570   58.2420   40.4260 C.3       1 I48         0.0541
      9 CA3        51.3090   58.9710   41.3910 C.3       1 I48         0.0896
     10 OA4        50.7670   59.0030   42.7200 O.3       1 I48        -0.3221
     11 C21        51.6860   59.2410   43.7660 C.ar      1 I48         0.0691
     12 C22        51.6380   58.5000   44.9710 C.ar      1 I48        -0.0252
     13 C23        52.2140   59.0250   46.1450 C.ar      1 I48         0.0470
     14 C24        53.0180   60.1840   46.0710 C.ar      1 I48        -0.0560
     15 C25        53.1420   60.8710   44.8590 C.ar      1 I48        -0.0703
     16 C26        52.5570   60.3530   43.6960 C.ar      1 I48        -0.0495
     17 C27        54.1780   61.9570   44.7040 C.3       1 I48        -0.0373
     18 NB1        52.2660   58.2310   47.3180 N.am      1 I48        -0.1915
     19 SB2        50.9340   58.3490   48.2640 S.o2      1 I48         0.0891
     20 OBA        51.1400   57.4350   49.3600 O.2       1 I48        -0.1446
     21 OBB        49.7050   58.0150   47.5850 O.2       1 I48        -0.1446
     22 C31        50.7250   59.9530   48.9100 C.ar      1 I48         0.1140
     23 C32        49.4410   60.5040   48.9530 C.ar      1 I48        -0.0346
     24 C33        49.3270   61.8920   49.1570 C.ar      1 I48        -0.0599
     25 C34        50.3900   62.5890   49.7680 C.ar      1 I48        -0.0616
     26 C35        51.6420   61.9500   49.9290 C.ar      1 I48        -0.0599
     27 C36        51.7980   60.5990   49.5380 C.ar      1 I48        -0.0346
     28 H1         47.1659   54.5423   40.5880 H         1 I48         0.0780
     29 H2         49.0993   56.0980   40.4903 H         1 I48         0.0610
     30 H3         46.4548   59.4680   40.2800 H         1 I48         0.0610
     31 H4         44.5010   57.9608   40.5100 H         1 I48         0.0780
     32 H5         48.8620   59.8115   40.5159 H         1 I48         0.1799
     33 H6         50.7419   58.3434   39.4005 H         1 I48         0.0543
     34 H7         50.3182   57.1773   40.6995 H         1 I48         0.0543
     35 H8         51.4588   60.0021   41.0385 H         1 I48         0.0634
     36 H9         52.2752   58.4456   41.4089 H         1 I48         0.0634
     37 H10        51.1580   57.5283   44.9907 H         1 I48         0.0345
     38 H11        53.5383   60.5406   46.9526 H         1 I48         0.0330
     39 H12        52.7735   60.8077   42.7361 H         1 I48         0.0343
     40 H13        54.5430   62.2599   45.6965 H         1 I48         0.0386
     41 H14        53.7276   62.8241   44.1987 H         1 I48         0.0386
     42 H15        55.0187   61.5788   44.1039 H         1 I48         0.0386
     43 H16        53.0469   57.6501   47.5477 H         1 I48         0.2158
     44 H17        48.5612   59.8822   48.8331 H         1 I48         0.0637
     45 H18        48.4319   62.4195   48.8478 H         1 I48         0.0618
     46 H19        50.2488   63.6073   50.1119 H         1 I48         0.0618
     47 H20        52.4795   62.4939   50.3507 H         1 I48         0.0618
     48 H21        52.7289   60.0745   49.7207 H         1 I48         0.0637
@<TRIPOS>BOND
     1    1    6 ar 
     2    1    2 ar 
     3    2    3 ar 
     4    3    4 ar 
     5    4    7 1  
     6    4    5 ar 
     7    5    6 ar 
     8    7    8 1  
     9    8    9 1  
    10    9   10 1  
    11   10   11 1  
    12   11   16 ar 
    13   11   12 ar 
    14   12   13 ar 
    15   13   18 1  
    16   13   14 ar 
    17   14   15 ar 
    18   15   17 1  
    19   15   16 ar 
    20   18   19 am 
    21   19   22 1  
    22   19   21 2  
    23   19   20 2  
    24   22   27 ar 
    25   22   23 ar 
    26   23   24 ar 
    27   24   25 ar 
    28   25   26 ar 
    29   26   27 ar 
    30    2   28 1  
    31    3   29 1  
    32    5   30 1  
    33    6   31 1  
    34    7   32 1  
    35    8   33 1  
    36    8   34 1  
    37    9   35 1  
    38    9   36 1  
    39   12   37 1  
    40   14   38 1  
    41   16   39 1  
    42   17   40 1  
    43   17   41 1  
    44   17   42 1  
    45   18   43 1  
    46   23   44 1  
    47   24   45 1  
    48   25   46 1  
    49   26   47 1  
    50   27   48 1  
@<TRIPOS>SUBSTRUCTURE
     1 I48         1

