### 
### Created by X-TOOL on Mon Sep 10 21:12:46 2018
### 

@<TRIPOS>MOLECULE
1uvu_ligand
   39    40     1     0     0
SMALL
GAST_HUCK


@<TRIPOS>ATOM
      1 CZ        -40.5130  -31.7940   40.6990 C.cat     1 DCH         0.2351
      2 NZ1       -41.4660  -30.9130   40.4530 N.pl3     1 DCH        -0.2722
      3 NZ2       -40.6450  -33.1040   40.7160 N.pl3     1 DCH        -0.2722
      4 C11       -39.1950  -31.1150   40.9500 C.ar      1 DCH         0.0240
      5 C12       -38.3370  -31.6200   41.9030 C.ar      1 DCH        -0.0525
      6 C13       -37.1250  -30.9650   42.1090 C.ar      1 DCH        -0.0259
      7 C14       -36.2890  -31.5020   43.0770 C.ar      1 DCH        -0.0548
      8 C15       -35.0500  -30.9210   43.3510 C.ar      1 DCH        -0.0399
      9 C16       -34.6680  -29.7420   42.6540 C.ar      1 DCH        -0.0565
     10 C17       -35.5100  -29.1720   41.6780 C.ar      1 DCH        -0.0567
     11 C18       -36.7450  -29.7830   41.3980 C.ar      1 DCH        -0.0222
     12 C19       -37.5960  -29.2590   40.4370 C.ar      1 DCH        -0.0568
     13 C1A       -38.8120  -29.9430   40.2200 C.ar      1 DCH        -0.0582
     14 CA1       -34.2340  -31.5860   44.4640 C.3       1 DCH        -0.0007
     15 CA2       -34.7480  -30.9950   45.8200 C.3       1 DCH         0.0584
     16 CA3       -34.7110  -29.4350   45.9130 C.2       1 DCH         0.2357
     17 OA3       -35.5520  -28.8830   46.6220 O.2       1 DCH        -0.3702
     18 OA4       -33.7450  -28.7320   45.1840 O.3       1 DCH        -0.2770
     19 CA5       -33.1660  -27.4690   45.7410 C.3       1 DCH         0.0740
     20 CA6       -32.5910  -26.8750   44.4140 C.3       1 DCH        -0.0371
     21 H1        -41.2517  -29.9056   40.4653 H         1 DCH         0.3181
     22 H2        -42.4234  -31.2334   40.2489 H         1 DCH         0.3181
     23 H3        -39.8310  -33.7010   40.9206 H         1 DCH         0.3181
     24 H4        -41.5623  -33.5317   40.5247 H         1 DCH         0.3181
     25 H5        -38.5980  -32.5022   42.4762 H         1 DCH         0.0603
     26 H6        -36.6015  -32.3825   43.6266 H         1 DCH         0.0531
     27 H7        -33.7155  -29.2748   42.8765 H         1 DCH         0.0586
     28 H8        -35.2094  -28.2742   41.1501 H         1 DCH         0.0620
     29 H9        -37.3398  -28.3660   39.8784 H         1 DCH         0.0619
     30 H10       -39.4892  -29.5627   39.4638 H         1 DCH         0.0598
     31 H11       -33.1649  -31.3619   44.3348 H         1 DCH         0.0454
     32 H12       -34.3852  -32.6754   44.4447 H         1 DCH         0.0454
     33 H13       -34.1224  -31.4006   46.6288 H         1 DCH         0.0541
     34 H14       -35.7887  -31.3214   45.9626 H         1 DCH         0.0541
     35 H15       -32.3781  -27.6658   46.4829 H         1 DCH         0.0610
     36 H16       -33.9354  -26.8211   46.1863 H         1 DCH         0.0610
     37 H17       -32.1073  -25.9096   44.6238 H         1 DCH         0.0255
     38 H18       -33.4092  -26.7263   43.6940 H         1 DCH         0.0255
     39 H19       -31.8519  -27.5711   43.9906 H         1 DCH         0.0255
@<TRIPOS>BOND
     1    1    2 ar 
     2    1    3 ar 
     3    1    4 1  
     4    2   21 1  
     5    2   22 1  
     6    3   23 1  
     7    3   24 1  
     8    4    5 ar 
     9    4   13 ar 
    10    5    6 ar 
    11    6    7 ar 
    12    6   11 ar 
    13    7    8 ar 
    14    8    9 ar 
    15    8   14 1  
    16    9   10 ar 
    17   10   11 ar 
    18   11   12 ar 
    19   12   13 ar 
    20   14   15 1  
    21   15   16 1  
    22   16   17 2  
    23   16   18 1  
    24   18   19 1  
    25   19   20 1  
    26    5   25 1  
    27    7   26 1  
    28    9   27 1  
    29   10   28 1  
    30   12   29 1  
    31   13   30 1  
    32   14   31 1  
    33   14   32 1  
    34   15   33 1  
    35   15   34 1  
    36   19   35 1  
    37   19   36 1  
    38   20   37 1  
    39   20   38 1  
    40   20   39 1  
@<TRIPOS>SUBSTRUCTURE
     1 DCH         1

