### 
### Created by X-TOOL on Mon Sep 10 21:12:52 2018
### 

@<TRIPOS>MOLECULE
1uw6_ligand
   27    28     1     0     0
SMALL
GAST_HUCK


@<TRIPOS>ATOM
      1 N1         81.7260   69.9810   -7.9430 N.ar      1 NCT        -0.3042
      2 C1         82.9260   69.9090   -8.6150 C.ar      1 NCT         0.0179
      3 C2         83.0690   69.2560   -9.8570 C.ar      1 NCT         0.0324
      4 C3         81.9220   68.6110  -10.3710 C.ar      1 NCT        -0.0351
      5 C4         80.7050   68.6170   -9.6410 C.ar      1 NCT        -0.0403
      6 C5         80.6360   69.3450   -8.4410 C.ar      1 NCT         0.0042
      7 N2         84.7730   70.4880  -11.3170 N.4       1 NCT         0.2482
      8 C6         84.3480   69.2120  -10.6390 C.3       1 NCT         0.0189
      9 C7         85.5370   68.7450   -9.8010 C.3       1 NCT         0.0064
     10 C8         86.7370   69.4340  -10.4240 C.3       1 NCT        -0.0054
     11 C9         86.2330   70.6250  -11.2350 C.3       1 NCT        -0.0300
     12 C10        84.5020   70.4860  -12.7560 C.3       1 NCT        -0.0413
     13 H1         83.7982   70.3743   -8.1702 H         1 NCT         0.0767
     14 H2         81.9718   68.1079  -11.3299 H         1 NCT         0.0680
     15 H3         79.8427   68.0690  -10.0032 H         1 NCT         0.0693
     16 H4         79.6959   69.3993   -7.9041 H         1 NCT         0.0767
     17 H5         84.3115   71.2677  -10.8752 H         1 NCT         0.2049
     18 H6         84.1860   68.4678  -11.4327 H         1 NCT         0.1033
     19 H7         85.6452   67.6517   -9.8554 H         1 NCT         0.0346
     20 H8         85.4159   69.0497   -8.7510 H         1 NCT         0.0346
     21 H9         87.2688   68.7324  -11.0835 H         1 NCT         0.0320
     22 H10        87.4183   69.7827   -9.6339 H         1 NCT         0.0320
     23 H11        86.4984   71.5665  -10.7319 H         1 NCT         0.0815
     24 H12        86.6729   70.6113  -12.2431 H         1 NCT         0.0815
     25 H13        83.4197   70.3862  -12.9251 H         1 NCT         0.0778
     26 H14        85.0260   69.6411  -13.2267 H         1 NCT         0.0778
     27 H15        84.8566   71.4292  -13.1972 H         1 NCT         0.0778
@<TRIPOS>BOND
     1    1    2 ar 
     2    1    6 ar 
     3    2    3 ar 
     4    3    4 ar 
     5    3    8 1  
     6    4    5 ar 
     7    5    6 ar 
     8    8    7 1  
     9    7   11 1  
    10    7   12 1  
    11    8    9 1  
    12    9   10 1  
    13   10   11 1  
    14    2   13 1  
    15    4   14 1  
    16    5   15 1  
    17    6   16 1  
    18    7   17 1  
    19    8   18 1  
    20    9   19 1  
    21    9   20 1  
    22   10   21 1  
    23   10   22 1  
    24   11   23 1  
    25   11   24 1  
    26   12   25 1  
    27   12   26 1  
    28   12   27 1  
@<TRIPOS>SUBSTRUCTURE
     1 NCT         1

