### 
### Created by X-TOOL on Mon Sep 10 21:12:46 2018
### 

@<TRIPOS>MOLECULE
1uwb_ligand
   42    44     1     0     0
SMALL
GAST_HUCK


@<TRIPOS>ATOM
      1 N1        141.4970  -25.3980   71.5960 N.am      1 TBO        -0.2338
      2 C1A       142.1040  -25.8440   72.8160 C.ar      1 TBO         0.0966
      3 C2        142.4550  -24.5720   70.9310 C.2       1 TBO         0.1796
      4 S2        142.2550  -23.7960   69.4350 S.2       1 TBO        -0.3154
      5 N3        143.6120  -24.5610   71.7120 N.am      1 TBO        -0.2155
      6 C3A       143.3270  -25.3030   72.8470 C.ar      1 TBO         0.1130
      7 C4        144.8140  -23.9420   71.2260 C.3       1 TBO         0.1010
      8 C5        145.4980  -23.0340   72.1840 C.3       1 TBO         0.0059
      9 N6        145.4360  -23.3420   73.5970 N.4       1 TBO         0.2553
     10 C7        145.5750  -24.7420   73.8760 C.3       1 TBO        -0.0020
     11 C7A       144.2360  -25.4030   73.9080 C.ar      1 TBO         0.0304
     12 C8        143.8450  -26.1990   75.0330 C.ar      1 TBO         0.0211
     13 CL8       144.8780  -26.3460   76.4260 Cl        1 TBO        -0.0930
     14 C9        142.5870  -26.8370   75.0380 C.ar      1 TBO        -0.0793
     15 C10       141.7090  -26.6630   73.8970 C.ar      1 TBO        -0.0543
     16 C11       146.9010  -23.2960   71.8330 C.3       1 TBO        -0.0190
     17 C12       145.8800  -22.3500   74.6520 C.3       1 TBO        -0.0236
     18 C13       144.7590  -22.0250   75.6250 C.2       1 TBO        -0.0650
     19 C14       144.7820  -21.4460   76.8150 C.2       1 TBO        -0.0823
     20 C15       143.3780  -21.4150   77.2860 C.3       1 TBO        -0.0404
     21 C16       146.0530  -20.9630   77.4590 C.3       1 TBO        -0.0404
     22 H1        140.5779  -25.6223   71.2720 H         1 TBO         0.2378
     23 H2        144.5562  -23.3578   70.3303 H         1 TBO         0.0666
     24 H3        145.5198  -24.7402   70.9526 H         1 TBO         0.0666
     25 H4        145.1874  -21.9923   72.0154 H         1 TBO         0.0876
     26 H5        144.4416  -23.2456   73.7306 H         1 TBO         0.2057
     27 H6        146.0655  -24.8699   74.8522 H         1 TBO         0.0952
     28 H7        146.1904  -25.2082   73.0925 H         1 TBO         0.0952
     29 H8        142.2817  -27.4470   75.8805 H         1 TBO         0.0460
     30 H9        140.7473  -27.1626   73.8736 H         1 TBO         0.0428
     31 H10       147.0562  -23.0893   70.7638 H         1 TBO         0.0285
     32 H11       147.1406  -24.3491   72.0414 H         1 TBO         0.0285
     33 H12       147.5562  -22.6456   72.4310 H         1 TBO         0.0285
     34 H13       146.2017  -21.4223   74.1562 H         1 TBO         0.0888
     35 H14       146.7245  -22.7787   75.2115 H         1 TBO         0.0888
     36 H15       143.7670  -22.3187   75.2851 H         1 TBO         0.0294
     37 H16       143.3344  -20.9412   78.2778 H         1 TBO         0.0375
     38 H17       142.9910  -22.4425   77.3531 H         1 TBO         0.0375
     39 H18       142.7660  -20.8382   76.5769 H         1 TBO         0.0375
     40 H19       146.9026  -21.1650   76.7902 H         1 TBO         0.0375
     41 H20       146.2039  -21.4897   78.4128 H         1 TBO         0.0375
     42 H21       145.9818  -19.8812   77.6448 H         1 TBO         0.0375
@<TRIPOS>BOND
     1    1    2 1  
     2    1    3 am 
     3    2    6 ar 
     4    2   15 ar 
     5    3    4 2  
     6    3    5 am 
     7    5    6 1  
     8    5    7 1  
     9    6   11 ar 
    10    7    8 1  
    11    8    9 1  
    12    8   16 1  
    13    9   10 1  
    14    9   17 1  
    15   10   11 1  
    16   11   12 ar 
    17   12   13 1  
    18   12   14 ar 
    19   14   15 ar 
    20   17   18 1  
    21   18   19 2  
    22   19   20 1  
    23   19   21 1  
    24    1   22 1  
    25    7   23 1  
    26    7   24 1  
    27    8   25 1  
    28    9   26 1  
    29   10   27 1  
    30   10   28 1  
    31   14   29 1  
    32   15   30 1  
    33   16   31 1  
    34   16   32 1  
    35   16   33 1  
    36   17   34 1  
    37   17   35 1  
    38   18   36 1  
    39   20   37 1  
    40   20   38 1  
    41   20   39 1  
    42   21   40 1  
    43   21   41 1  
    44   21   42 1  
@<TRIPOS>SUBSTRUCTURE
     1 TBO         1

