### 
### Created by X-TOOL on Mon Sep 10 21:12:52 2018
### 

@<TRIPOS>MOLECULE
1uwf_ligand
   36    36     1     0     0
SMALL
GAST_HUCK


@<TRIPOS>ATOM
      1 C3'         9.6880   14.7890   40.6340 C.3       1 DEG        -0.0538
      2 C4'         9.6030   14.0160   41.9330 C.3       1 DEG        -0.0652
      3 C1'         9.0430   15.4140   38.1340 C.3       1 DEG         0.0508
      4 C2'         8.8570   14.5640   39.3790 C.3       1 DEG        -0.0296
      5 C2          7.2140   14.8730   34.8130 C.3       1 DEG         0.1341
      6 O2          7.4110   15.3800   33.5040 O.3       1 DEG        -0.3841
      7 C3          7.3680   13.2960   34.7580 C.3       1 DEG         0.1141
      8 O3          6.3800   12.7570   33.8740 O.3       1 DEG        -0.3864
      9 C4          8.7660   12.9250   34.2330 C.3       1 DEG         0.1119
     10 O4          8.9190   11.4860   34.1850 O.3       1 DEG        -0.3865
     11 C5          9.8510   13.5190   35.1970 C.3       1 DEG         0.1130
     12 O5          9.6810   15.0020   35.2810 O.3       1 DEG        -0.3405
     13 C6         11.2620   13.2090   34.7100 C.3       1 DEG         0.0730
     14 O6         11.5150   13.7850   33.4460 O.3       1 DEG        -0.3924
     15 O1          8.1120   14.9640   37.1100 O.3       1 DEG        -0.3487
     16 C1          8.3350   15.4590   35.7760 C.3       1 DEG         0.1879
     17 H1         10.7322   14.6786   40.3062 H         1 DEG         0.0263
     18 H2          9.5004   15.8360   40.9143 H         1 DEG         0.0263
     19 H3         10.3350   14.4193   42.6482 H         1 DEG         0.0230
     20 H4          9.8220   12.9549   41.7433 H         1 DEG         0.0230
     21 H5          8.5903   14.1123   42.3514 H         1 DEG         0.0230
     22 H6         10.0744   15.3091   37.7665 H         1 DEG         0.0561
     23 H7          8.8449   16.4689   38.3746 H         1 DEG         0.0561
     24 H8          7.8054   14.6818   39.6794 H         1 DEG         0.0287
     25 H9          9.0363   13.5230   39.0721 H         1 DEG         0.0287
     26 H10         6.2150   15.1482   35.1822 H         1 DEG         0.0671
     27 H11         6.7610   15.0071   32.9200 H         1 DEG         0.2101
     28 H12         7.2306   12.8781   35.7662 H         1 DEG         0.0648
     29 H13         5.5141   12.9823   34.1935 H         1 DEG         0.2100
     30 H14         8.8995   13.3413   33.2236 H         1 DEG         0.0647
     31 H15         9.7854   11.2715   33.8596 H         1 DEG         0.2100
     32 H16         9.7153   13.0802   36.1965 H         1 DEG         0.0647
     33 H17        11.3821   12.1181   34.6354 H         1 DEG         0.0584
     34 H18        11.9857   13.6088   35.4355 H         1 DEG         0.0584
     35 H19        12.4001   13.5726   33.1739 H         1 DEG         0.2095
     36 H20         8.2922   16.5582   35.7763 H         1 DEG         0.0937
@<TRIPOS>BOND
     1    1    2 1  
     2    4    1 1  
     3    3    4 1  
     4   15    3 1  
     5    5    6 1  
     6    5    7 1  
     7   16    5 1  
     8    7    8 1  
     9    7    9 1  
    10    9   10 1  
    11   11    9 1  
    12   12   11 1  
    13   11   13 1  
    14   16   12 1  
    15   13   14 1  
    16   15   16 1  
    17    1   17 1  
    18    1   18 1  
    19    2   19 1  
    20    2   20 1  
    21    2   21 1  
    22    3   22 1  
    23    3   23 1  
    24    4   24 1  
    25    4   25 1  
    26    5   26 1  
    27    6   27 1  
    28    7   28 1  
    29    8   29 1  
    30    9   30 1  
    31   10   31 1  
    32   11   32 1  
    33   13   33 1  
    34   13   34 1  
    35   14   35 1  
    36   16   36 1  
@<TRIPOS>SUBSTRUCTURE
     1 DEG         1

