### 
### Created by X-TOOL on Mon Sep 10 21:12:52 2018
### 

@<TRIPOS>MOLECULE
1uwh_ligand
   48    50     1     0     0
SMALL
GAST_HUCK


@<TRIPOS>ATOM
      1 C1         77.6250   47.8530   68.5610 C.ar      1 BAX        -0.0127
      2 C2         77.1990   48.8230   67.6770 C.ar      1 BAX         0.0959
      3 C3         77.0410   50.1520   68.0650 C.ar      1 BAX        -0.0108
      4 C4         77.3070   50.5060   69.3560 C.ar      1 BAX        -0.0291
      5 C13        76.1690   47.3550   65.5280 C.2       1 BAX         0.3148
      6 C16        75.3080   46.2050   63.3490 C.ar      1 BAX         0.0577
      7 C17        75.7030   45.8670   61.9800 C.ar      1 BAX        -0.0478
      8 C18        74.9730   44.9030   61.2950 C.ar      1 BAX        -0.0404
      9 C19        73.8960   44.2580   61.8870 C.ar      1 BAX         0.1047
     10 C20        73.5170   44.5670   63.2070 C.ar      1 BAX        -0.0404
     11 C21        74.2130   45.5420   63.9430 C.ar      1 BAX        -0.0478
     12 O22        73.2130   43.3320   61.1480 O.3       1 BAX        -0.2564
     13 C24        74.6220   41.3330   61.8990 C.ar      1 BAX         0.0024
     14 C25        74.6010   39.9590   62.0580 C.ar      1 BAX         0.0057
     15 C27        72.2730   39.9270   61.2150 C.ar      1 BAX         0.1117
     16 C28        72.3300   41.2550   61.0770 C.ar      1 BAX         0.0183
     17 N30        70.5070   37.9140   61.3520 N.am      1 BAX        -0.2874
     18 C31        70.0640   37.0280   60.3220 C.3       1 BAX         0.0193
     19 C5         77.7370   49.5450   70.2650 C.ar      1 BAX         0.0592
     20 C6         77.9050   48.1580   69.8670 C.ar      1 BAX         0.0462
     21 C7         78.3340   47.1480   70.7270 C.3       1 BAX         0.3715
     22 F8         79.5630   47.3940   71.1380 F         1 BAX        -0.2224
     23 F9         77.5040   47.0700   71.7710 F         1 BAX        -0.2224
     24 F10        78.3720   45.9370   70.1830 F         1 BAX        -0.2224
     25 CL11       78.0460   50.1400   71.9170 Cl        1 BAX        -0.0539
     26 N12        76.9190   48.4000   66.3580 N.am      1 BAX        -0.2087
     27 N14        76.0650   47.3550   64.1450 N.am      1 BAX        -0.2199
     28 O15        76.2500   46.2990   66.0550 O.2       1 BAX        -0.3813
     29 C23        73.4160   41.9760   61.3840 C.ar      1 BAX         0.1379
     30 N26        73.3930   39.2430   61.7070 N.ar      1 BAX        -0.2925
     31 C29        70.9260   39.2220   60.8210 C.2       1 BAX         0.2205
     32 O32        69.9160   39.9770   60.5670 O.2       1 BAX        -0.3791
     33 H1         77.7402   46.8318   68.2162 H         1 BAX         0.0706
     34 H2         76.7105   50.8963   67.3495 H         1 BAX         0.0758
     35 H3         77.1833   51.5353   69.6727 H         1 BAX         0.0670
     36 H4         76.5474   46.3586   61.5106 H         1 BAX         0.0480
     37 H5         75.2503   44.6498   60.2781 H         1 BAX         0.0520
     38 H6         72.6803   44.0481   63.6605 H         1 BAX         0.0520
     39 H7         73.9116   45.7820   64.9562 H         1 BAX         0.0480
     40 H8         75.5035   41.9127   62.1481 H         1 BAX         0.0673
     41 H9         75.4687   39.4310   62.4365 H         1 BAX         0.0803
     42 H10        71.4561   41.7730   60.6988 H         1 BAX         0.0696
     43 H11        70.5298   37.6733   62.3223 H         1 BAX         0.1844
     44 H12        69.7631   36.0686   60.7680 H         1 BAX         0.0484
     45 H13        70.8823   36.8591   59.6066 H         1 BAX         0.0484
     46 H14        69.2055   37.4742   59.7986 H         1 BAX         0.0484
     47 H15        77.3892   49.0177   65.7277 H         1 BAX         0.2266
     48 H16        76.4807   48.1047   63.6301 H         1 BAX         0.2230
@<TRIPOS>BOND
     1    2    1 ar 
     2    1   20 ar 
     3    2    3 ar 
     4   26    2 1  
     5    3    4 ar 
     6    4   19 ar 
     7    5   26 am 
     8   27    5 am 
     9    5   28 2  
    10    7    6 ar 
    11   11    6 ar 
    12    6   27 1  
    13    8    7 ar 
    14    9    8 ar 
    15    9   10 ar 
    16   12    9 1  
    17   10   11 ar 
    18   29   12 1  
    19   14   13 ar 
    20   29   13 ar 
    21   30   14 ar 
    22   15   16 ar 
    23   15   30 ar 
    24   31   15 1  
    25   16   29 ar 
    26   17   18 1  
    27   17   31 am 
    28   19   20 ar 
    29   19   25 1  
    30   20   21 1  
    31   21   22 1  
    32   21   23 1  
    33   21   24 1  
    34   31   32 2  
    35    1   33 1  
    36    3   34 1  
    37    4   35 1  
    38    7   36 1  
    39    8   37 1  
    40   10   38 1  
    41   11   39 1  
    42   13   40 1  
    43   14   41 1  
    44   16   42 1  
    45   17   43 1  
    46   18   44 1  
    47   18   45 1  
    48   18   46 1  
    49   26   47 1  
    50   27   48 1  
@<TRIPOS>SUBSTRUCTURE
     1 BAX         1

