### 
### Created by X-TOOL on Mon Sep 10 21:12:51 2018
### 

@<TRIPOS>MOLECULE
1uwu_ligand
   26    26     1     0     0
SMALL
GAST_HUCK


@<TRIPOS>ATOM
      1 C1         74.5520   21.0060   89.4610 C.3       1 GOX         0.1556
      2 N1         75.0040   21.1720   90.6950 N.2       1 GOX        -0.0055
      3 C2         73.8000   22.2220   88.8780 C.3       1 GOX         0.1554
      4 N5         74.7720   19.7820   88.7940 N.4       1 GOX         0.2593
      5 O7         75.8450   20.1790   91.2060 O.2       1 GOX        -0.1863
      6 O2         72.7420   22.5540   89.7360 O.3       1 GOX        -0.3810
      7 C3         73.2510   21.9150   87.4810 C.3       1 GOX         0.1201
      8 O3         72.9960   23.2170   86.9110 O.3       1 GOX        -0.3861
      9 C4         74.2960   21.0370   86.7040 C.3       1 GOX         0.1282
     10 O4         73.9330   20.9240   85.3500 O.3       1 GOX        -0.3835
     11 C5         74.3700   19.6410   87.3900 C.3       1 GOX         0.0327
     12 C6         75.3780   18.6410   86.7940 C.3       1 GOX         0.0894
     13 O6         76.6830   19.1360   86.9310 O.3       1 GOX        -0.3894
     14 H1         75.4944   21.3850   89.0388 H         1 GOX         0.1249
     15 H2         74.4936   23.0730   88.8087 H         1 GOX         0.0706
     16 H3         74.2783   19.0727   89.3128 H         1 GOX         0.2048
     17 H4         75.7626   19.5999   88.8348 H         1 GOX         0.2048
     18 H5         72.1506   21.8141   89.8087 H         1 GOX         0.2103
     19 H6         72.3070   21.3545   87.5486 H         1 GOX         0.0650
     20 H7         72.3651   23.6794   87.4501 H         1 GOX         0.2100
     21 H8         75.2843   21.5165   86.7623 H         1 GOX         0.0678
     22 H9         74.5742   20.3908   84.8948 H         1 GOX         0.2102
     23 H10        73.3656   19.1958   87.3360 H         1 GOX         0.0901
     24 H11        75.1553   18.4914   85.7272 H         1 GOX         0.0614
     25 H12        75.2952   17.6807   87.3240 H         1 GOX         0.0614
     26 H13        76.7559   19.9648   86.4725 H         1 GOX         0.2097
@<TRIPOS>BOND
     1    1    2 1  
     2    1    3 1  
     3    1    4 1  
     4    2    5 2  
     5    3    6 1  
     6    3    7 1  
     7    4   11 1  
     8    7    8 1  
     9    7    9 1  
    10    9   10 1  
    11    9   11 1  
    12   11   12 1  
    13   12   13 1  
    14    1   14 1  
    15    3   15 1  
    16    4   16 1  
    17    4   17 1  
    18    6   18 1  
    19    7   19 1  
    20    8   20 1  
    21    9   21 1  
    22   10   22 1  
    23   11   23 1  
    24   12   24 1  
    25   12   25 1  
    26   13   26 1  
@<TRIPOS>SUBSTRUCTURE
     1 GOX         1

