### 
### Created by X-TOOL on Sun Sep  9 21:50:04 2018
### 

@<TRIPOS>MOLECULE
1ux7_ligand
   40    41     1     0     0
SMALL
GAST_HUCK


@<TRIPOS>ATOM
      1 O4A         9.3790   19.4890   -9.6130 O.3       1 NON        -0.3520
      2 C1B        10.6620   18.9130   -9.4020 C.3       1 NON         0.0395
      3 C1B         8.3760   18.5440  -10.0490 C.3       1 NON         0.1872
      4 C2B         7.2340   18.5170   -9.0460 C.3       1 NON         0.1341
      5 C3B         6.0850   17.6320   -9.5300 C.3       1 NON         0.1141
      6 C4B         5.6580   18.0060  -10.9420 C.3       1 NON         0.1134
      7 C5B         6.9110   17.9990  -11.8070 C.3       1 NON         0.0796
      8 O2B         7.6490   18.1440   -7.7450 O.3       1 NON        -0.3841
      9 O3B         4.9840   17.7580   -8.6460 O.3       1 NON        -0.3864
     10 O4B         4.7090   17.0830  -11.4410 O.3       1 NON        -0.3405
     11 O5B         7.8580   18.8910  -11.2550 O.3       1 NON        -0.3461
     12 C1B         3.6560   17.6650  -12.2230 C.3       1 NON         0.1880
     13 C2B         3.1210   16.5640  -13.0950 C.3       1 NON         0.1341
     14 C3B         1.8730   16.9810  -13.8770 C.3       1 NON         0.1137
     15 C4B         0.8550   17.6270  -12.9250 C.3       1 NON         0.1069
     16 C5B         1.5720   18.6860  -12.1110 C.3       1 NON         0.0792
     17 O2B         4.1530   16.1290  -13.9550 O.3       1 NON        -0.3841
     18 O3B         1.3350   15.8340  -14.5210 O.3       1 NON        -0.3864
     19 O4B        -0.2370   18.2660  -13.5600 O.3       1 NON        -0.3869
     20 O5B         2.6480   18.0990  -11.4260 O.3       1 NON        -0.3461
     21 H1         11.3646   19.6931   -9.0736 H         1 NON         0.0525
     22 H2         11.0223   18.4665  -10.3405 H         1 NON         0.0525
     23 H3         10.5915   18.1340   -8.6286 H         1 NON         0.0525
     24 H4          8.8315   17.5454  -10.1212 H         1 NON         0.0937
     25 H5          6.8469   19.5443   -8.9763 H         1 NON         0.0671
     26 H6          6.4236   16.5854   -9.5314 H         1 NON         0.0648
     27 H7          5.2132   19.0120  -10.9401 H         1 NON         0.0647
     28 H8          6.6556   18.3183  -12.8282 H         1 NON         0.0587
     29 H9          7.3337   16.9839  -11.8351 H         1 NON         0.0587
     30 H10         8.3620   18.7072   -7.4676 H         1 NON         0.2101
     31 H11         4.2856   17.1787   -8.9273 H         1 NON         0.2100
     32 H12         4.0426   18.4967  -12.8303 H         1 NON         0.0937
     33 H13         2.8369   15.7231  -12.4453 H         1 NON         0.0671
     34 H14         2.1551   17.7186  -14.6427 H         1 NON         0.0647
     35 H15         0.4623   16.8450  -12.2585 H         1 NON         0.0643
     36 H16         0.8725   19.1276  -11.3859 H         1 NON         0.0587
     37 H17         1.9491   19.4718  -12.7820 H         1 NON         0.0587
     38 H18         4.9098   15.8787  -13.4383 H         1 NON         0.2101
     39 H19         1.9894   15.4613  -15.1002 H         1 NON         0.2100
     40 H20         0.0868   18.9607  -14.1212 H         1 NON         0.2100
@<TRIPOS>BOND
     1    1    2 1  
     2    1    3 1  
     3    3    4 1  
     4    3   11 1  
     5    4    5 1  
     6    4    8 1  
     7    5    6 1  
     8    5    9 1  
     9    6    7 1  
    10    6   10 1  
    11    7   11 1  
    12   10   12 1  
    13   12   13 1  
    14   12   20 1  
    15   13   14 1  
    16   13   17 1  
    17   14   15 1  
    18   14   18 1  
    19   15   16 1  
    20   15   19 1  
    21   16   20 1  
    22    2   21 1  
    23    2   22 1  
    24    2   23 1  
    25    3   24 1  
    26    4   25 1  
    27    5   26 1  
    28    6   27 1  
    29    7   28 1  
    30    7   29 1  
    31    8   30 1  
    32    9   31 1  
    33   12   32 1  
    34   13   33 1  
    35   14   34 1  
    36   15   35 1  
    37   16   36 1  
    38   16   37 1  
    39   17   38 1  
    40   18   39 1  
    41   19   40 1  
@<TRIPOS>SUBSTRUCTURE
     1 NON         1

