### 
### Created by X-TOOL on Mon Sep 10 21:12:51 2018
### 

@<TRIPOS>MOLECULE
1uxa_ligand
   60    61     1     0     0
SMALL
GAST_HUCK


@<TRIPOS>ATOM
      1 C1         45.6100   53.3010   66.3770 C.2       1 SIA         0.1041
      2 C2         46.5790   52.9010   65.2170 C.3       1 SIA         0.2208
      3 C3         46.6810   51.3810   65.1080 C.3       1 SIA         0.0353
      4 C4         45.4200   50.7190   64.5000 C.3       1 SIA         0.0850
      5 C5         45.0050   51.4340   63.1900 C.3       1 SIA         0.0964
      6 C6         44.8610   52.9260   63.5110 C.3       1 SIA         0.1143
      7 C7         44.4710   53.7230   62.2760 C.3       1 SIA         0.1114
      8 C8         44.4580   55.2140   62.6210 C.3       1 SIA         0.1065
      9 C9         43.7460   55.9860   61.5300 C.3       1 SIA         0.0727
     10 C10        43.5570   50.1530   61.6940 C.2       1 SIA         0.1733
     11 C11        42.0640   49.8570   61.3800 C.3       1 SIA         0.0257
     12 N5         43.7200   50.8590   62.7980 N.am      1 SIA        -0.2790
     13 O1A        45.6500   52.6590   67.4510 O.co2     1 SIA        -0.5426
     14 O1B        44.8290   54.2710   66.2550 O.co2     1 SIA        -0.5426
     15 O4         45.6910   49.3630   64.2410 O.3       1 SIA        -0.3893
     16 O6         46.1270   53.4530   63.9800 O.3       1 SIA        -0.3384
     17 O7         45.4470   53.4930   61.2680 O.3       1 SIA        -0.3865
     18 O8         43.8060   55.4410   63.8610 O.3       1 SIA        -0.3869
     19 O9         44.0250   57.3710   61.6750 O.3       1 SIA        -0.3924
     20 O10        44.4740   49.8260   60.8760 O.2       1 SIA        -0.3974
     21 C1         49.3320   56.8000   64.7540 C.3       1 GAL         0.1854
     22 C2         49.1250   55.3100   64.5780 C.3       1 GAL         0.1342
     23 C3         47.9640   54.8520   65.4830 C.3       1 GAL         0.1197
     24 C4         48.2180   55.2650   66.9130 C.3       1 GAL         0.1121
     25 C5         48.5120   56.7700   66.9720 C.3       1 GAL         0.1130
     26 C6         48.8200   57.3100   68.3460 C.3       1 GAL         0.0730
     27 O1         50.3790   57.2390   63.9550 O.3       1 GAL        -0.3649
     28 O2         48.8370   55.0500   63.2260 O.3       1 GAL        -0.3841
     29 O3         47.8560   53.4160   65.4430 O.3       1 GAL        -0.3380
     30 O4         49.3370   54.5210   67.3700 O.3       1 GAL        -0.3865
     31 O5         49.6360   57.0740   66.1250 O.3       1 GAL        -0.3407
     32 O6         48.8390   58.7300   68.3220 O.3       1 GAL        -0.3924
     33 H1         46.8385   50.9695   66.1159 H         1 SIA         0.0336
     34 H2         47.5442   51.1347   64.4723 H         1 SIA         0.0336
     35 H3         44.5933   50.7909   65.2221 H         1 SIA         0.0618
     36 H4         45.7534   51.2832   62.3981 H         1 SIA         0.0608
     37 H5         44.0930   53.0529   64.2882 H         1 SIA         0.0646
     38 H6         43.4779   53.4098   61.9215 H         1 SIA         0.0647
     39 H7         45.4963   55.5698   62.6947 H         1 SIA         0.0643
     40 H8         42.6616   55.8195   61.6101 H         1 SIA         0.0584
     41 H9         44.0983   55.6415   60.5465 H         1 SIA         0.0584
     42 H10        41.9939   49.2687   60.4532 H         1 SIA         0.0467
     43 H11        41.5207   50.8052   61.2543 H         1 SIA         0.0467
     44 H12        41.6206   49.2875   62.2101 H         1 SIA         0.0467
     45 H13        42.9292   51.0067   63.3920 H         1 SIA         0.1856
     46 H14        44.9124   48.9471   63.8897 H         1 SIA         0.2099
     47 H15        46.3011   53.7565   61.5898 H         1 SIA         0.2100
     48 H16        44.2525   54.9568   64.5456 H         1 SIA         0.2100
     49 H17        43.7205   57.6670   62.5249 H         1 SIA         0.2095
     50 H18        48.4114   57.3306   64.4694 H         1 SIA         0.0935
     51 H19        50.0413   54.7729   64.8643 H         1 SIA         0.0671
     52 H20        47.0263   55.3052   65.1290 H         1 SIA         0.0650
     53 H21        47.3385   55.0393   67.5339 H         1 SIA         0.0647
     54 H22        47.6237   57.2964   66.5928 H         1 SIA         0.0647
     55 H23        49.8034   56.9389   68.6702 H         1 SIA         0.0584
     56 H24        48.0484   56.9689   69.0519 H         1 SIA         0.0584
     57 H25        50.1784   57.0577   63.0442 H         1 SIA         0.2126
     58 H26        48.7037   54.1172   63.1055 H         1 SIA         0.2101
     59 H27        49.5314   54.7629   68.2680 H         1 SIA         0.2100
     60 H28        49.5061   59.0264   67.7141 H         1 SIA         0.2095
@<TRIPOS>BOND
     1    2    1 1  
     2    1   13 ar 
     3    1   14 ar 
     4    2    3 1  
     5    2   16 1  
     6   29    2 1  
     7    3    4 1  
     8    4    5 1  
     9    4   15 1  
    10    6    5 1  
    11    5   12 1  
    12    6    7 1  
    13   16    6 1  
    14    7    8 1  
    15    7   17 1  
    16    8    9 1  
    17    8   18 1  
    18    9   19 1  
    19   10   11 1  
    20   12   10 am 
    21   10   20 2  
    22   22   21 1  
    23   21   27 1  
    24   21   31 1  
    25   23   22 1  
    26   22   28 1  
    27   23   24 1  
    28   23   29 1  
    29   24   25 1  
    30   24   30 1  
    31   25   26 1  
    32   25   31 1  
    33   26   32 1  
    34    3   33 1  
    35    3   34 1  
    36    4   35 1  
    37    5   36 1  
    38    6   37 1  
    39    7   38 1  
    40    8   39 1  
    41    9   40 1  
    42    9   41 1  
    43   11   42 1  
    44   11   43 1  
    45   11   44 1  
    46   12   45 1  
    47   15   46 1  
    48   17   47 1  
    49   18   48 1  
    50   19   49 1  
    51   21   50 1  
    52   22   51 1  
    53   23   52 1  
    54   24   53 1  
    55   25   54 1  
    56   26   55 1  
    57   26   56 1  
    58   27   57 1  
    59   28   58 1  
    60   30   59 1  
    61   32   60 1  
@<TRIPOS>SUBSTRUCTURE
     1 SIA         1

