### 
### Created by X-TOOL on Mon Sep 10 21:12:51 2018
### 

@<TRIPOS>MOLECULE
1uxb_ligand
   60    61     1     0     0
SMALL
GAST_HUCK


@<TRIPOS>ATOM
      1 C1         45.6930   53.0680   66.2750 C.2       1 SIA         0.1041
      2 C2         46.6500   52.5170   65.1700 C.3       1 SIA         0.2208
      3 C3         46.6390   50.9720   65.1590 C.3       1 SIA         0.0353
      4 C4         45.3830   50.3490   64.4770 C.3       1 SIA         0.0850
      5 C5         45.0290   51.0510   63.1630 C.3       1 SIA         0.0964
      6 C6         44.9680   52.5450   63.4530 C.3       1 SIA         0.1143
      7 C7         44.5060   53.3710   62.2490 C.3       1 SIA         0.1114
      8 C8         44.5630   54.8230   62.6530 C.3       1 SIA         0.1065
      9 C9         43.8180   55.6620   61.6380 C.3       1 SIA         0.0727
     10 C10        43.4990   49.8990   61.6470 C.2       1 SIA         0.1733
     11 C11        42.0420   49.6190   61.3380 C.3       1 SIA         0.0257
     12 N5         43.7070   50.6150   62.7480 N.am      1 SIA        -0.2790
     13 O1A        45.7120   52.5420   67.4080 O.co2     1 SIA        -0.5426
     14 O1B        44.9670   54.0510   66.0200 O.co2     1 SIA        -0.5426
     15 O4         45.6650   49.0070   64.1860 O.3       1 SIA        -0.3893
     16 O6         46.2550   53.0280   63.8850 O.3       1 SIA        -0.3384
     17 O7         45.3800   53.1430   61.1480 O.3       1 SIA        -0.3865
     18 O8         43.9660   54.9820   63.9340 O.3       1 SIA        -0.3869
     19 O9         44.2220   57.0120   61.7970 O.3       1 SIA        -0.3924
     20 O10        44.3920   49.4540   60.9030 O.2       1 SIA        -0.3974
     21 C1         49.4100   56.3700   64.6080 C.3       1 GAL         0.1854
     22 C2         49.1680   54.8630   64.4370 C.3       1 GAL         0.1342
     23 C3         48.0820   54.4020   65.4330 C.3       1 GAL         0.1197
     24 C4         48.4380   54.8150   66.8570 C.3       1 GAL         0.1121
     25 C5         48.6840   56.3170   66.8780 C.3       1 GAL         0.1130
     26 C6         49.0550   56.8470   68.2390 C.3       1 GAL         0.0730
     27 O1         50.4490   56.8040   63.7850 O.3       1 GAL        -0.3649
     28 O2         48.7520   54.6010   63.1010 O.3       1 GAL        -0.3841
     29 O3         47.9460   52.9680   65.3980 O.3       1 GAL        -0.3380
     30 O4         49.6120   54.1050   67.2430 O.3       1 GAL        -0.3865
     31 O5         49.7590   56.6480   65.9660 O.3       1 GAL        -0.3407
     32 O6         49.0660   58.2700   68.2450 O.3       1 GAL        -0.3924
     33 H1         46.6776   50.6189   66.2001 H         1 SIA         0.0336
     34 H2         47.5328   50.6240   64.6204 H         1 SIA         0.0336
     35 H3         44.5275   50.4145   65.1653 H         1 SIA         0.0618
     36 H4         45.7746   50.8298   62.3851 H         1 SIA         0.0608
     37 H5         44.2456   52.6984   64.2682 H         1 SIA         0.0646
     38 H6         43.4784   53.0946   61.9704 H         1 SIA         0.0647
     39 H7         45.6126   55.1493   62.6961 H         1 SIA         0.0643
     40 H8         42.7345   55.5753   61.8065 H         1 SIA         0.0584
     41 H9         44.0597   55.3183   60.6214 H         1 SIA         0.0584
     42 H10        41.9706   49.0247   60.4151 H         1 SIA         0.0467
     43 H11        41.5062   50.5703   61.2038 H         1 SIA         0.0467
     44 H12        41.5917   49.0588   62.1706 H         1 SIA         0.0467
     45 H13        42.9208   50.8636   63.3137 H         1 SIA         0.1856
     46 H14        45.8880   48.5502   64.9886 H         1 SIA         0.2099
     47 H15        45.1121   53.6847   60.4150 H         1 SIA         0.2100
     48 H16        44.4359   54.4541   64.5689 H         1 SIA         0.2100
     49 H17        43.7635   57.5549   61.1665 H         1 SIA         0.2095
     50 H18        48.4898   56.9130   64.3468 H         1 SIA         0.0935
     51 H19        50.1013   54.3174   64.6399 H         1 SIA         0.0671
     52 H20        47.1245   54.8646   65.1515 H         1 SIA         0.0650
     53 H21        47.6131   54.5666   67.5409 H         1 SIA         0.0647
     54 H22        47.7621   56.8186   66.5485 H         1 SIA         0.0647
     55 H23        50.0557   56.4782   68.5085 H         1 SIA         0.0584
     56 H24        48.3215   56.4896   68.9767 H         1 SIA         0.0584
     57 H25        50.5756   57.7382   63.9026 H         1 SIA         0.2126
     58 H26        48.6058   53.6686   62.9932 H         1 SIA         0.2101
     59 H27        49.4370   53.1715   67.2232 H         1 SIA         0.2100
     60 H28        49.7008   58.5833   67.6115 H         1 SIA         0.2095
@<TRIPOS>BOND
     1    2    1 1  
     2    1   13 ar 
     3    1   14 ar 
     4    2    3 1  
     5    2   16 1  
     6   29    2 1  
     7    3    4 1  
     8    4    5 1  
     9    4   15 1  
    10    6    5 1  
    11    5   12 1  
    12    6    7 1  
    13   16    6 1  
    14    7    8 1  
    15    7   17 1  
    16    8    9 1  
    17    8   18 1  
    18    9   19 1  
    19   10   11 1  
    20   12   10 am 
    21   10   20 2  
    22   22   21 1  
    23   21   27 1  
    24   21   31 1  
    25   23   22 1  
    26   22   28 1  
    27   23   24 1  
    28   23   29 1  
    29   24   25 1  
    30   24   30 1  
    31   25   26 1  
    32   25   31 1  
    33   26   32 1  
    34    3   33 1  
    35    3   34 1  
    36    4   35 1  
    37    5   36 1  
    38    6   37 1  
    39    7   38 1  
    40    8   39 1  
    41    9   40 1  
    42    9   41 1  
    43   11   42 1  
    44   11   43 1  
    45   11   44 1  
    46   12   45 1  
    47   15   46 1  
    48   17   47 1  
    49   18   48 1  
    50   19   49 1  
    51   21   50 1  
    52   22   51 1  
    53   23   52 1  
    54   24   53 1  
    55   25   54 1  
    56   26   55 1  
    57   26   56 1  
    58   27   57 1  
    59   28   58 1  
    60   30   59 1  
    61   32   60 1  
@<TRIPOS>SUBSTRUCTURE
     1 SIA         1

