### 
### Created by X-TOOL on Mon Sep 10 21:12:51 2018
### 

@<TRIPOS>MOLECULE
1uy6_ligand
   52    54     1     0     0
SMALL
GAST_HUCK


@<TRIPOS>ATOM
      1 C19         8.2560   10.1870   23.0600 C.3       1 PU3         0.0563
      2 O3          8.0950   11.3890   23.8530 O.3       1 PU3        -0.3296
      3 C5          6.8220   11.8930   24.0150 C.ar      1 PU3         0.1054
      4 C6          5.6590   11.2860   23.4960 C.ar      1 PU3        -0.0477
      5 C4          6.6540   13.0700   24.8410 C.ar      1 PU3         0.1399
      6 O1          7.7140   13.7150   25.3760 O.3       1 PU3        -0.3338
      7 C7          8.0410   15.0020   24.8170 C.3       1 PU3         0.0527
      8 C3          5.3100   13.5540   25.1120 C.ar      1 PU3         0.1054
      9 O2          5.2900   14.7170   25.8570 O.3       1 PU3        -0.3296
     10 C8          4.1560   15.5370   25.9070 C.3       1 PU3         0.0563
     11 C2          4.1860   12.8870   24.5880 C.ar      1 PU3        -0.0477
     12 C1          4.3830   11.7460   23.7770 C.ar      1 PU3        -0.0506
     13 C9          3.2090   11.0270   23.1370 C.3       1 PU3         0.0534
     14 C10         1.9940   10.7670   23.9920 C.2       1 PU3         0.1361
     15 N1          0.8030   11.3050   23.7050 N.2       1 PU3        -0.3061
     16 C11         0.0520   10.9000   24.7540 C.ar      1 PU3         0.0921
     17 C13        -1.3510   11.0400   25.1150 C.ar      1 PU3         0.1251
     18 N5         -2.1950   11.7260   24.3210 N.pl3     1 PU3        -0.3168
     19 C12         0.8580   10.0890   25.6590 C.ar      1 PU3         0.1543
     20 N4          0.3420    9.5640   26.7850 N.ar      1 PU3        -0.2744
     21 C14        -0.9570    9.7930   27.0860 C.ar      1 PU3         0.0509
     22 N3         -1.7780   10.5150   26.2810 N.ar      1 PU3        -0.2729
     23 N2          2.0680   10.0630   25.1400 N.pl3     1 PU3        -0.2160
     24 C15         3.1820    9.3050   25.7100 C.3       1 PU3         0.0604
     25 C16         2.9290    7.8460   25.3350 C.3       1 PU3        -0.0259
     26 C17         4.0350    7.2060   24.5160 C.3       1 PU3        -0.0535
     27 C18         4.0540    5.7230   24.9060 C.3       1 PU3        -0.0652
     28 H1          9.3203    9.9116   23.0236 H         1 PU3         0.0572
     29 H2          7.8894   10.3694   22.0391 H         1 PU3         0.0572
     30 H3          7.6806    9.3675   23.5153 H         1 PU3         0.0572
     31 H4          5.7687   10.4227   22.8497 H         1 PU3         0.0371
     32 H5          8.9168   15.4162   25.3380 H         1 PU3         0.0565
     33 H6          7.1858   15.6829   24.9392 H         1 PU3         0.0565
     34 H7          8.2702   14.8895   23.7471 H         1 PU3         0.0565
     35 H8          4.3582   16.4033   26.5541 H         1 PU3         0.0572
     36 H9          3.3082   14.9659   26.3132 H         1 PU3         0.0572
     37 H10         3.9109   15.8860   24.8931 H         1 PU3         0.0572
     38 H11         3.1850   13.2430   24.8032 H         1 PU3         0.0371
     39 H12         3.5750   10.0524   22.7817 H         1 PU3         0.0663
     40 H13         2.8826   11.6315   22.2779 H         1 PU3         0.0663
     41 H14        -3.1865   11.8207   24.5833 H         1 PU3         0.1811
     42 H15        -1.8490   12.1561   23.4514 H         1 PU3         0.1811
     43 H16        -1.3581    9.3839   28.0062 H         1 PU3         0.0978
     44 H17         3.2041    9.4209   26.8036 H         1 PU3         0.0609
     45 H18         4.1365    9.6494   25.2854 H         1 PU3         0.0609
     46 H19         1.9976    7.7976   24.7517 H         1 PU3         0.0291
     47 H20         2.8107    7.2681   26.2634 H         1 PU3         0.0291
     48 H21         5.0025    7.6741   24.7503 H         1 PU3         0.0263
     49 H22         3.8255    7.3149   23.4416 H         1 PU3         0.0263
     50 H23         4.8419    5.2050   24.3396 H         1 PU3         0.0230
     51 H24         3.0784    5.2705   24.6747 H         1 PU3         0.0230
     52 H25         4.2554    5.6297   25.9834 H         1 PU3         0.0230
@<TRIPOS>BOND
     1    1    2 1  
     2    2    3 1  
     3    3    4 ar 
     4    3    5 ar 
     5    4   12 ar 
     6    5    6 1  
     7    5    8 ar 
     8    6    7 1  
     9    8    9 1  
    10    8   11 ar 
    11    9   10 1  
    12   11   12 ar 
    13   12   13 1  
    14   13   14 1  
    15   14   15 2  
    16   14   23 1  
    17   15   16 1  
    18   16   17 ar 
    19   16   19 ar 
    20   17   18 1  
    21   17   22 ar 
    22   19   20 ar 
    23   19   23 1  
    24   20   21 ar 
    25   21   22 ar 
    26   23   24 1  
    27   24   25 1  
    28   25   26 1  
    29   26   27 1  
    30    1   28 1  
    31    1   29 1  
    32    1   30 1  
    33    4   31 1  
    34    7   32 1  
    35    7   33 1  
    36    7   34 1  
    37   10   35 1  
    38   10   36 1  
    39   10   37 1  
    40   11   38 1  
    41   13   39 1  
    42   13   40 1  
    43   18   41 1  
    44   18   42 1  
    45   21   43 1  
    46   24   44 1  
    47   24   45 1  
    48   25   46 1  
    49   25   47 1  
    50   26   48 1  
    51   26   49 1  
    52   27   50 1  
    53   27   51 1  
    54   27   52 1  
@<TRIPOS>SUBSTRUCTURE
     1 PU3         1

