### 
### Created by X-TOOL on Mon Sep 10 21:12:51 2018
### 

@<TRIPOS>MOLECULE
1uy7_ligand
   44    46     1     0     0
SMALL
GAST_HUCK


@<TRIPOS>ATOM
      1 C18         5.1810    7.0090   24.3200 C.3       1 PU4        -0.0652
      2 C17         3.6330    6.9890   24.4800 C.3       1 PU4        -0.0535
      3 C16         3.0520    7.5180   25.5700 C.3       1 PU4        -0.0259
      4 C15         3.1690    9.0230   25.7360 C.3       1 PU4         0.0604
      5 N2          2.0420    9.7150   25.1430 N.pl3     1 PU4        -0.2160
      6 C12         0.8050    9.8270   25.5980 C.ar      1 PU4         0.1543
      7 N4          0.4000    9.2940   26.8260 N.ar      1 PU4        -0.2744
      8 C14        -0.9950    9.5150   27.1870 C.ar      1 PU4         0.0509
      9 N3         -1.7470   10.3070   26.2660 N.ar      1 PU4        -0.2729
     10 C11        -0.0790   10.5990   24.6950 C.ar      1 PU4         0.0921
     11 C13        -1.4200   10.8510   25.0730 C.ar      1 PU4         0.1250
     12 N5         -2.2100   11.5750   24.2490 N.pl3     1 PU4        -0.3168
     13 N1          0.7480   11.0000   23.6890 N.2       1 PU4        -0.3061
     14 C10         1.8890   10.3900   23.9990 C.2       1 PU4         0.1364
     15 C9          3.2300   10.4940   23.2750 C.3       1 PU4         0.0579
     16 C1          4.1800   11.5770   23.7590 C.ar      1 PU4        -0.0337
     17 C6          5.5650   11.4710   23.8400 C.ar      1 PU4        -0.0657
     18 C5          6.3300   12.5480   24.2910 C.ar      1 PU4        -0.0389
     19 C2          3.4640   12.7390   24.1450 C.ar      1 PU4        -0.0657
     20 C3          4.2570   13.8070   24.6100 C.ar      1 PU4        -0.0389
     21 C4          5.6590   13.7180   24.6760 C.ar      1 PU4         0.0842
     22 O1          6.4180   14.7770   25.1570 O.3       1 PU4        -0.3253
     23 C7          5.8370   15.8210   25.9330 C.3       1 PU4         0.0580
     24 H1          5.4574    6.5317   23.3683 H         1 PU4         0.0230
     25 H2          5.6429    6.4595   25.1535 H         1 PU4         0.0230
     26 H3          5.5368    8.0499   24.3251 H         1 PU4         0.0230
     27 H4          3.3260    5.9335   24.4405 H         1 PU4         0.0263
     28 H5          3.2198    7.5238   23.6121 H         1 PU4         0.0263
     29 H6          3.5081    7.0477   26.4536 H         1 PU4         0.0291
     30 H7          1.9815    7.2679   25.5330 H         1 PU4         0.0291
     31 H8          4.0941    9.3649   25.2489 H         1 PU4         0.0609
     32 H9          3.2098    9.2616   26.8090 H         1 PU4         0.0609
     33 H10        -1.4314    9.1068   28.0914 H         1 PU4         0.0978
     34 H11        -1.8342   11.9350   23.3601 H         1 PU4         0.1811
     35 H12        -3.1878   11.7667   24.5100 H         1 PU4         0.1811
     36 H13         3.0218   10.6830   22.2116 H         1 PU4         0.0666
     37 H14         3.7434    9.5271   23.3819 H         1 PU4         0.0666
     38 H15         6.0527   10.5469   23.5513 H         1 PU4         0.0536
     39 H16         7.4108   12.4821   24.3422 H         1 PU4         0.0527
     40 H17         2.3834   12.8011   24.0864 H         1 PU4         0.0536
     41 H18         3.7724   14.7237   24.9260 H         1 PU4         0.0527
     42 H19         6.6138   16.5503   26.2065 H         1 PU4         0.0575
     43 H20         5.3948   15.3964   26.8463 H         1 PU4         0.0575
     44 H21         5.0540   16.3225   25.3453 H         1 PU4         0.0575
@<TRIPOS>BOND
     1    1    2 1  
     2    2    3 1  
     3    3    4 1  
     4    4    5 1  
     5    5    6 1  
     6    5   14 1  
     7    6    7 ar 
     8    6   10 ar 
     9    7    8 ar 
    10    8    9 ar 
    11    9   11 ar 
    12   10   11 ar 
    13   10   13 1  
    14   11   12 1  
    15   13   14 2  
    16   14   15 1  
    17   15   16 1  
    18   16   17 ar 
    19   16   19 ar 
    20   17   18 ar 
    21   18   21 ar 
    22   19   20 ar 
    23   20   21 ar 
    24   21   22 1  
    25   22   23 1  
    26    1   24 1  
    27    1   25 1  
    28    1   26 1  
    29    2   27 1  
    30    2   28 1  
    31    3   29 1  
    32    3   30 1  
    33    4   31 1  
    34    4   32 1  
    35    8   33 1  
    36   12   34 1  
    37   12   35 1  
    38   15   36 1  
    39   15   37 1  
    40   17   38 1  
    41   18   39 1  
    42   19   40 1  
    43   20   41 1  
    44   23   42 1  
    45   23   43 1  
    46   23   44 1  
@<TRIPOS>SUBSTRUCTURE
     1 PU4         1

