### 
### Created by X-TOOL on Mon Sep 10 21:12:51 2018
### 

@<TRIPOS>MOLECULE
1uy8_ligand
   44    46     1     0     0
SMALL
GAST_HUCK


@<TRIPOS>ATOM
      1 C18         5.0660    7.3220   23.7970 C.3       1 PU5        -0.0652
      2 C17         3.6040    7.4470   24.2530 C.3       1 PU5        -0.0535
      3 C16         3.2740    7.8790   25.4860 C.3       1 PU5        -0.0259
      4 C15         3.2960    9.3810   25.7620 C.3       1 PU5         0.0605
      5 N2          2.0990    9.9760   25.1460 N.pl3     1 PU5        -0.2158
      6 C12         0.9010    9.9800   25.6920 C.ar      1 PU5         0.1544
      7 N4          0.4000    9.5170   26.8410 N.ar      1 PU5        -0.2743
      8 C14        -0.9160    9.6640   27.0930 C.ar      1 PU5         0.0510
      9 C9          3.2450   10.8070   23.0920 C.3       1 PU5         0.0604
     10 N3         -1.7690   10.3330   26.2830 N.ar      1 PU5        -0.2728
     11 C11         0.0520   10.7140   24.7590 C.ar      1 PU5         0.0923
     12 C13        -1.3430   10.8240   25.0970 C.ar      1 PU5         0.1251
     13 N5         -2.1500   11.4490   24.2400 N.pl3     1 PU5        -0.3168
     14 N1          0.8130   11.0990   23.7430 N.2       1 PU5        -0.3057
     15 C10         2.0450   10.6060   23.9820 C.2       1 PU5         0.1379
     16 C1          5.5570   11.6860   23.5570 C.ar      1 PU5        -0.0684
     17 C6          4.1670   11.8520   23.6790 C.ar      1 PU5        -0.0319
     18 C5          3.6200   12.9700   24.2770 C.ar      1 PU5        -0.0293
     19 C2          6.3990   12.6580   24.0770 C.ar      1 PU5        -0.0766
     20 C3          5.8540   13.7700   24.6880 C.ar      1 PU5        -0.0397
     21 C4          4.4770   13.9330   24.7560 C.ar      1 PU5         0.0847
     22 O1          3.9190   15.0200   25.3740 O.3       1 PU5        -0.3229
     23 C7          4.6480   16.2200   25.6550 C.3       1 PU5         0.0592
     24 H1          5.0967    6.9527   22.7613 H         1 PU5         0.0230
     25 H2          5.5959    6.6163   24.4537 H         1 PU5         0.0230
     26 H3          5.5520    8.3074   23.8495 H         1 PU5         0.0230
     27 H4          3.1628    6.4447   24.1499 H         1 PU5         0.0263
     28 H5          3.1189    8.1357   23.5457 H         1 PU5         0.0263
     29 H6          3.9734    7.4087   26.1929 H         1 PU5         0.0291
     30 H7          2.2526    7.5261   25.6912 H         1 PU5         0.0291
     31 H8          4.2014    9.8273   25.3249 H         1 PU5         0.0609
     32 H9          3.2856    9.5610   26.8471 H         1 PU5         0.0609
     33 H10        -1.3146    9.2201   27.9980 H         1 PU5         0.0978
     34 H11         2.9082   11.1378   22.0985 H         1 PU5         0.0684
     35 H12         3.7892    9.8558   22.9968 H         1 PU5         0.0684
     36 H13        -1.7775   11.8055   23.3483 H         1 PU5         0.1811
     37 H14        -3.1461   11.5755   24.4694 H         1 PU5         0.1811
     38 H15         5.9653   10.8113   23.0638 H         1 PU5         0.0470
     39 H16         2.5459   13.0853   24.3663 H         1 PU5         0.0484
     40 H17         7.4747   12.5457   24.0044 H         1 PU5         0.0573
     41 H18         6.5064   14.5214   25.1179 H         1 PU5         0.0489
     42 H19         3.9856   16.9433   26.1531 H         1 PU5         0.0577
     43 H20         5.0206   16.6515   24.7143 H         1 PU5         0.0577
     44 H21         5.4977   15.9871   26.3136 H         1 PU5         0.0577
@<TRIPOS>BOND
     1    1    2 1  
     2    2    3 1  
     3    3    4 1  
     4    4    5 1  
     5    5    6 1  
     6    5   15 1  
     7    6    7 ar 
     8    6   11 ar 
     9    7    8 ar 
    10    8   10 ar 
    11   15    9 1  
    12    9   17 1  
    13   10   12 ar 
    14   11   12 ar 
    15   11   14 1  
    16   12   13 1  
    17   14   15 2  
    18   17   16 ar 
    19   16   19 ar 
    20   17   18 ar 
    21   18   21 ar 
    22   19   20 ar 
    23   20   21 ar 
    24   21   22 1  
    25   22   23 1  
    26    1   24 1  
    27    1   25 1  
    28    1   26 1  
    29    2   27 1  
    30    2   28 1  
    31    3   29 1  
    32    3   30 1  
    33    4   31 1  
    34    4   32 1  
    35    8   33 1  
    36    9   34 1  
    37    9   35 1  
    38   13   36 1  
    39   13   37 1  
    40   16   38 1  
    41   18   39 1  
    42   19   40 1  
    43   20   41 1  
    44   23   42 1  
    45   23   43 1  
    46   23   44 1  
@<TRIPOS>SUBSTRUCTURE
     1 PU5         1

