### 
### Created by X-TOOL on Mon Sep 10 21:12:51 2018
### 

@<TRIPOS>MOLECULE
1uy9_ligand
   43    46     1     0     0
SMALL
GAST_HUCK


@<TRIPOS>ATOM
      1 C18         4.9830    7.5760   23.7480 C.3       1 PU6        -0.0652
      2 C17         3.5060    7.4260   24.1100 C.3       1 PU6        -0.0535
      3 C16         3.1540    7.8810   25.5340 C.3       1 PU6        -0.0259
      4 C15         3.2590    9.4030   25.7530 C.3       1 PU6         0.0604
      5 N2          2.0760   10.0190   25.1410 N.pl3     1 PU6        -0.2160
      6 C12         0.8200   10.0430   25.6620 C.ar      1 PU6         0.1543
      7 N4          0.3600    9.5230   26.8260 N.ar      1 PU6        -0.2744
      8 C14        -0.9510    9.6980   27.1070 C.ar      1 PU6         0.0509
      9 N3         -1.7740   10.3570   26.2580 N.ar      1 PU6        -0.2729
     10 C11        -0.0120   10.7330   24.7930 C.ar      1 PU6         0.0921
     11 C13        -1.3440   10.8860   25.0860 C.ar      1 PU6         0.1250
     12 N5         -2.2200   11.5340   24.2540 N.pl3     1 PU6        -0.3168
     13 N1          0.7760   11.1190   23.7730 N.2       1 PU6        -0.3061
     14 C10         2.0420   10.6920   23.9610 C.2       1 PU6         0.1362
     15 C9          3.2450   10.9050   23.0700 C.3       1 PU6         0.0555
     16 C1          4.1030   12.0040   23.6760 C.ar      1 PU6        -0.0426
     17 C6          3.5210   13.1730   24.2180 C.ar      1 PU6        -0.0367
     18 C5          4.3850   14.1340   24.7300 C.ar      1 PU6         0.1176
     19 C2          5.4980   11.8400   23.6620 C.ar      1 PU6        -0.0771
     20 O3          4.0980   15.3560   25.3160 O.3       1 PU6        -0.2926
     21 C3          6.3360   12.8310   24.1870 C.ar      1 PU6        -0.0471
     22 C4          5.7420   13.9700   24.7070 C.ar      1 PU6         0.1165
     23 O1          6.3480   15.0850   25.2850 O.3       1 PU6        -0.2952
     24 C7          5.3240   16.0030   25.6900 C.3       1 PU6         0.1855
     25 H1          5.1449    7.2287   22.7169 H         1 PU6         0.0230
     26 H2          5.5926    6.9737   24.4377 H         1 PU6         0.0230
     27 H3          5.2748    8.6335   23.8288 H         1 PU6         0.0230
     28 H4          3.2330    6.3651   24.0102 H         1 PU6         0.0263
     29 H5          2.9152    8.0249   23.4013 H         1 PU6         0.0263
     30 H6          3.8400    7.3832   26.2351 H         1 PU6         0.0291
     31 H7          2.1207    7.5716   25.7499 H         1 PU6         0.0291
     32 H8          4.1723    9.7889   25.2766 H         1 PU6         0.0609
     33 H9          3.2844    9.6267   26.8297 H         1 PU6         0.0609
     34 H10        -1.3519    9.3017   28.0329 H         1 PU6         0.0978
     35 H11        -1.8863   11.9334   23.3652 H         1 PU6         0.1811
     36 H12        -3.2118   11.6214   24.5177 H         1 PU6         0.1811
     37 H13         2.9142   11.2040   22.0645 H         1 PU6         0.0664
     38 H14         3.8270    9.9740   23.0028 H         1 PU6         0.0664
     39 H15         2.4463   13.3139   24.2336 H         1 PU6         0.0456
     40 H16         5.9292   10.9388   23.2413 H         1 PU6         0.0442
     41 H17         7.4134   12.7114   24.1868 H         1 PU6         0.0494
     42 H18         5.3597   16.1717   26.7764 H         1 PU6         0.0971
     43 H19         5.4329   16.9639   25.1659 H         1 PU6         0.0971
@<TRIPOS>BOND
     1    1    2 1  
     2    2    3 1  
     3    3    4 1  
     4    4    5 1  
     5    5    6 1  
     6    5   14 1  
     7    6    7 ar 
     8    6   10 ar 
     9    7    8 ar 
    10    8    9 ar 
    11    9   11 ar 
    12   10   11 ar 
    13   10   13 1  
    14   11   12 1  
    15   13   14 2  
    16   14   15 1  
    17   15   16 1  
    18   16   17 ar 
    19   16   19 ar 
    20   17   18 ar 
    21   18   20 1  
    22   18   22 ar 
    23   19   21 ar 
    24   20   24 1  
    25   21   22 ar 
    26   22   23 1  
    27   23   24 1  
    28    1   25 1  
    29    1   26 1  
    30    1   27 1  
    31    2   28 1  
    32    2   29 1  
    33    3   30 1  
    34    3   31 1  
    35    4   32 1  
    36    4   33 1  
    37    8   34 1  
    38   12   35 1  
    39   12   36 1  
    40   15   37 1  
    41   15   38 1  
    42   17   39 1  
    43   19   40 1  
    44   21   41 1  
    45   24   42 1  
    46   24   43 1  
@<TRIPOS>SUBSTRUCTURE
     1 PU6         1

