### 
### Created by X-TOOL on Mon Sep 10 21:12:51 2018
### 

@<TRIPOS>MOLECULE
1uyc_ligand
   48    50     1     0     0
SMALL
GAST_HUCK


@<TRIPOS>ATOM
      1 C19         7.7380   10.0170   23.0910 C.3       1 PU7         0.0555
      2 C5          6.7340   12.5930   23.8320 C.ar      1 PU7        -0.0473
      3 O20         6.3690   10.4460   22.7950 O.3       1 PU7        -0.3316
      4 C6          5.8380   11.5810   23.4170 C.ar      1 PU7         0.0841
      5 C4          6.2120   13.7390   24.4690 C.ar      1 PU7        -0.0481
      6 C3          4.8210   13.8110   24.6450 C.ar      1 PU7         0.0735
      7 O2          4.1810   14.9090   25.2820 O.3       1 PU7        -0.3300
      8 C8          4.8610   16.0970   25.6550 C.3       1 PU7         0.0568
      9 C2          3.9570   12.7910   24.2740 C.ar      1 PU7        -0.0369
     10 C1          4.4470   11.6690   23.6390 C.ar      1 PU7        -0.0019
     11 C9          3.4480   10.6040   23.2180 C.3       1 PU7         0.0589
     12 C10         2.1830   10.4840   24.0560 C.2       1 PU7         0.1361
     13 N1          0.9770   11.0060   23.7820 N.2       1 PU7        -0.3061
     14 C11         0.1980   10.6660   24.8270 C.ar      1 PU7         0.0921
     15 C13        -1.1490   10.8710   25.0860 C.ar      1 PU7         0.1250
     16 N5         -2.0300   11.5510   24.1910 N.pl3     1 PU7        -0.3168
     17 C12         0.9590    9.9560   25.7260 C.ar      1 PU7         0.1543
     18 N4          0.4920    9.5090   26.8940 N.ar      1 PU7        -0.2744
     19 C14        -0.8270    9.7040   27.1420 C.ar      1 PU7         0.0509
     20 N3         -1.6940   10.4430   26.2530 N.ar      1 PU7        -0.2729
     21 N2          2.1600    9.8720   25.2240 N.pl3     1 PU7        -0.2161
     22 C15         3.3720    9.2320   25.7790 C.3       1 PU7         0.0604
     23 C16         3.4270    7.7050   25.6300 C.3       1 PU7        -0.0259
     24 C17         3.9250    7.0200   24.3570 C.3       1 PU7        -0.0535
     25 C18         5.3200    7.2640   23.7080 C.3       1 PU7        -0.0652
     26 H1          7.9726    9.1129   22.5099 H         1 PU7         0.0570
     27 H2          7.8291    9.7966   24.1648 H         1 PU7         0.0570
     28 H3          8.4403   10.8192   22.8204 H         1 PU7         0.0570
     29 H4          7.8001   12.4907   23.6643 H         1 PU7         0.0497
     30 H5          6.8625   14.5360   24.8106 H         1 PU7         0.0462
     31 H6          4.1519   16.7921   26.1283 H         1 PU7         0.0573
     32 H7          5.2942   16.5679   24.7602 H         1 PU7         0.0573
     33 H8          5.6641   15.8521   26.3657 H         1 PU7         0.0573
     34 H9          2.8968   12.8758   24.4832 H         1 PU7         0.0459
     35 H10         3.9628    9.6325   23.2507 H         1 PU7         0.0663
     36 H11         3.1433   10.8229   22.1840 H         1 PU7         0.0663
     37 H12        -3.0223   11.6729   24.4386 H         1 PU7         0.1811
     38 H13        -1.6731   11.9196   23.2979 H         1 PU7         0.1811
     39 H14        -1.2502    9.2865   28.0484 H         1 PU7         0.0978
     40 H15         3.4238    9.4720   26.8512 H         1 PU7         0.0609
     41 H16         4.2473    9.6564   25.2655 H         1 PU7         0.0609
     42 H17         2.3994    7.3457   25.7879 H         1 PU7         0.0291
     43 H18         4.0716    7.3419   26.4441 H         1 PU7         0.0291
     44 H19         3.1895    7.2725   23.5790 H         1 PU7         0.0263
     45 H20         3.8817    5.9410   24.5663 H         1 PU7         0.0263
     46 H21         5.4173    6.6445   22.8043 H         1 PU7         0.0230
     47 H22         6.1100    6.9941   24.4243 H         1 PU7         0.0230
     48 H23         5.4178    8.3256   23.4371 H         1 PU7         0.0230
@<TRIPOS>BOND
     1    3    1 1  
     2    4    2 ar 
     3    2    5 ar 
     4    3    4 1  
     5    4   10 ar 
     6    5    6 ar 
     7    6    7 1  
     8    6    9 ar 
     9    7    8 1  
    10    9   10 ar 
    11   10   11 1  
    12   11   12 1  
    13   12   13 2  
    14   12   21 1  
    15   13   14 1  
    16   14   15 ar 
    17   14   17 ar 
    18   15   16 1  
    19   15   20 ar 
    20   17   18 ar 
    21   17   21 1  
    22   18   19 ar 
    23   19   20 ar 
    24   21   22 1  
    25   22   23 1  
    26   23   24 1  
    27   24   25 1  
    28    1   26 1  
    29    1   27 1  
    30    1   28 1  
    31    2   29 1  
    32    5   30 1  
    33    8   31 1  
    34    8   32 1  
    35    8   33 1  
    36    9   34 1  
    37   11   35 1  
    38   11   36 1  
    39   16   37 1  
    40   16   38 1  
    41   19   39 1  
    42   22   40 1  
    43   22   41 1  
    44   23   42 1  
    45   23   43 1  
    46   24   44 1  
    47   24   45 1  
    48   25   46 1  
    49   25   47 1  
    50   25   48 1  
@<TRIPOS>SUBSTRUCTURE
     1 PU7         1

