### 
### Created by X-TOOL on Mon Sep 10 21:12:51 2018
### 

@<TRIPOS>MOLECULE
1uyd_ligand
   52    54     1     0     0
SMALL
GAST_HUCK


@<TRIPOS>ATOM
      1 C19         4.4030   15.5280   26.5790 C.3       1 PU8         0.0565
      2 O3          5.1220   15.0840   25.4530 O.3       1 PU8        -0.3287
      3 C5          5.0910   13.7860   24.8460 C.ar      1 PU8         0.1197
      4 C6          3.9590   13.1780   24.2910 C.ar      1 PU8         0.0522
      5 C4          6.3240   13.1530   24.7740 C.ar      1 PU8         0.1408
      6 O1          7.4370   13.8000   25.3630 O.3       1 PU8        -0.3338
      7 C7          7.9680   14.9820   24.7400 C.3       1 PU8         0.0527
      8 C3          6.4650   11.9280   24.1660 C.ar      1 PU8         0.1060
      9 O2          7.7380   11.2760   24.1460 O.3       1 PU8        -0.3292
     10 C8          8.1250   10.3750   23.0920 C.3       1 PU8         0.0565
     11 C2          5.3500   11.3260   23.6130 C.ar      1 PU8        -0.0468
     12 C1          4.1060   11.9220   23.6560 C.ar      1 PU8        -0.0363
     13 C9          2.9810   11.1340   22.9970 C.3       1 PU8         0.0540
     14 C10         1.7990   10.8980   23.8970 C.2       1 PU8         0.1362
     15 N1          0.5690   11.3430   23.6650 N.2       1 PU8        -0.3060
     16 C11        -0.1860   10.9430   24.6660 C.ar      1 PU8         0.0921
     17 C13        -1.5340   11.1210   24.9450 C.ar      1 PU8         0.1251
     18 N5         -2.4390   11.8290   24.0330 N.pl3     1 PU8        -0.3168
     19 C12         0.6250   10.2700   25.5670 C.ar      1 PU8         0.1543
     20 N4          0.1180    9.7800   26.7170 N.ar      1 PU8        -0.2744
     21 C14        -1.1950    9.9850   26.9470 C.ar      1 PU8         0.0509
     22 N3         -2.0040   10.6440   26.0890 N.ar      1 PU8        -0.2728
     23 N2          1.8540   10.2510   25.0560 N.pl3     1 PU8        -0.2160
     24 C15         3.0530    9.6350   25.6380 C.3       1 PU8         0.0604
     25 C16         2.9130    8.1310   25.6360 C.3       1 PU8        -0.0259
     26 C17         3.6440    7.2660   24.6120 C.3       1 PU8        -0.0535
     27 C18         4.6650    7.8940   23.6780 C.3       1 PU8        -0.0652
     28 CL          2.4190   14.0030   24.3670 Cl        1 PU8        -0.0972
     29 H1          4.6554   16.5788   26.7842 H         1 PU8         0.0573
     30 H2          4.6677   14.9105   27.4500 H         1 PU8         0.0573
     31 H3          3.3241   15.4417   26.3826 H         1 PU8         0.0573
     32 H4          8.8233   15.3518   25.3245 H         1 PU8         0.0565
     33 H5          7.1886   15.7572   24.7001 H         1 PU8         0.0565
     34 H6          8.2984   14.7414   23.7188 H         1 PU8         0.0565
     35 H7          9.1394    9.9969   23.2869 H         1 PU8         0.0573
     36 H8          8.1111   10.9084   22.1301 H         1 PU8         0.0573
     37 H9          7.4203    9.5313   23.0537 H         1 PU8         0.0573
     38 H10         5.4557   10.3599   23.1328 H         1 PU8         0.0372
     39 H11         3.3787   10.1576   22.6832 H         1 PU8         0.0665
     40 H12         2.6382   11.6916   22.1130 H         1 PU8         0.0665
     41 H13        -3.4335   11.9397   24.2774 H         1 PU8         0.1811
     42 H14        -2.0800   12.2154   23.1483 H         1 PU8         0.1811
     43 H15        -1.6226    9.6018   27.8664 H         1 PU8         0.0978
     44 H16         3.1785    9.9879   26.6723 H         1 PU8         0.0609
     45 H17         3.9339    9.9197   25.0439 H         1 PU8         0.0609
     46 H18         1.8407    7.9187   25.5134 H         1 PU8         0.0291
     47 H19         3.2441    7.7866   26.6268 H         1 PU8         0.0291
     48 H20         2.8729    6.8060   23.9765 H         1 PU8         0.0263
     49 H21         4.1699    6.4818   25.1763 H         1 PU8         0.0263
     50 H22         5.0825    7.1199   23.0174 H         1 PU8         0.0230
     51 H23         5.4743    8.3462   24.2701 H         1 PU8         0.0230
     52 H24         4.1773    8.6704   23.0703 H         1 PU8         0.0230
@<TRIPOS>BOND
     1    1    2 1  
     2    2    3 1  
     3    3    4 ar 
     4    3    5 ar 
     5    4   12 ar 
     6    4   28 1  
     7    5    6 1  
     8    5    8 ar 
     9    6    7 1  
    10    8    9 1  
    11    8   11 ar 
    12    9   10 1  
    13   11   12 ar 
    14   12   13 1  
    15   13   14 1  
    16   14   15 2  
    17   14   23 1  
    18   15   16 1  
    19   16   17 ar 
    20   16   19 ar 
    21   17   18 1  
    22   17   22 ar 
    23   19   20 ar 
    24   19   23 1  
    25   20   21 ar 
    26   21   22 ar 
    27   23   24 1  
    28   24   25 1  
    29   25   26 1  
    30   26   27 1  
    31    1   29 1  
    32    1   30 1  
    33    1   31 1  
    34    7   32 1  
    35    7   33 1  
    36    7   34 1  
    37   10   35 1  
    38   10   36 1  
    39   10   37 1  
    40   11   38 1  
    41   13   39 1  
    42   13   40 1  
    43   18   41 1  
    44   18   42 1  
    45   21   43 1  
    46   24   44 1  
    47   24   45 1  
    48   25   46 1  
    49   25   47 1  
    50   26   48 1  
    51   26   49 1  
    52   27   50 1  
    53   27   51 1  
    54   27   52 1  
@<TRIPOS>SUBSTRUCTURE
     1 PU8         1

