### 
### Created by X-TOOL on Mon Sep 10 21:12:51 2018
### 

@<TRIPOS>MOLECULE
1uye_ligand
   51    53     1     0     0
SMALL
GAST_HUCK


@<TRIPOS>ATOM
      1 CL          2.2560   13.9900   24.2570 Cl        1 PU9        -0.0972
      2 C13         3.8690   13.2630   24.2860 C.ar      1 PU9         0.0522
      3 C15         4.9460   13.9470   24.8770 C.ar      1 PU9         0.1197
      4 O3          4.9810   15.2210   25.5140 O.3       1 PU9        -0.3287
      5 C20         5.1590   16.5150   25.7010 C.3       1 PU9         0.0565
      6 C17         6.2210   13.4310   24.8810 C.ar      1 PU9         0.1408
      7 O2          7.2220   14.2270   25.5350 O.3       1 PU9        -0.3338
      8 C19         8.3290   14.8030   24.7850 C.3       1 PU9         0.0527
      9 C16         6.4930   12.2180   24.2920 C.ar      1 PU9         0.1060
     10 O1          7.8040   11.7830   24.3480 O.3       1 PU9        -0.3292
     11 C18         8.2840   10.6560   23.5810 C.3       1 PU9         0.0565
     12 C14         5.4480   11.5030   23.6890 C.ar      1 PU9        -0.0468
     13 C12         4.1290   12.0070   23.6840 C.ar      1 PU9        -0.0363
     14 C6          3.0450   11.1730   22.9810 C.3       1 PU9         0.0540
     15 C5          1.8530   10.8790   23.8830 C.2       1 PU9         0.1362
     16 N3          0.6050   11.3020   23.6430 N.2       1 PU9        -0.3060
     17 C2         -0.1510   10.8810   24.6540 C.ar      1 PU9         0.0921
     18 C3         -1.4770   10.9720   24.9820 C.ar      1 PU9         0.1251
     19 N5         -2.4380   11.6520   24.1500 N.pl3     1 PU9        -0.3168
     20 C1          0.6680   10.2330   25.5240 C.ar      1 PU9         0.1543
     21 N1          0.2850    9.6600   26.6660 N.ar      1 PU9        -0.2744
     22 C4         -1.0230    9.7970   26.9490 C.ar      1 PU9         0.0509
     23 N2         -1.8770   10.4420   26.1350 N.ar      1 PU9        -0.2728
     24 N4          1.9020   10.2070   25.0690 N.pl3     1 PU9        -0.2160
     25 C7          3.0610    9.5780   25.7040 C.3       1 PU9         0.0613
     26 C8          3.0370    8.0610   25.4890 C.3       1 PU9        -0.0148
     27 C9          3.1550    7.7060   24.0130 C.3       1 PU9         0.0113
     28 C10         4.5690    7.8510   23.4340 C.1       1 PU9        -0.1055
     29 C11         5.6920    7.9600   23.0730 C.1       1 PU9        -0.1192
     30 H1          4.8868   16.7770   26.7341 H         1 PU9         0.0573
     31 H2          4.5240   17.0775   25.0007 H         1 PU9         0.0573
     32 H3          6.2145   16.7693   25.5242 H         1 PU9         0.0573
     33 H4          8.9774   15.3721   25.4674 H         1 PU9         0.0565
     34 H5          7.9353   15.4747   24.0080 H         1 PU9         0.0565
     35 H6          8.9107   13.9975   24.3131 H         1 PU9         0.0565
     36 H7          9.3530   10.5000   23.7883 H         1 PU9         0.0573
     37 H8          8.1440   10.8560   22.5085 H         1 PU9         0.0573
     38 H9          7.7205    9.7542   23.8625 H         1 PU9         0.0573
     39 H10         5.6561   10.5484   23.2194 H         1 PU9         0.0372
     40 H11         3.4878   10.2184   22.6606 H         1 PU9         0.0665
     41 H12         2.6909   11.7273   22.0993 H         1 PU9         0.0665
     42 H13        -3.4266   11.6962   24.4357 H         1 PU9         0.1811
     43 H14        -2.1360   12.0936   23.2698 H         1 PU9         0.1811
     44 H15        -1.4037    9.3704   27.8700 H         1 PU9         0.0978
     45 H16         3.0415    9.7904   26.7831 H         1 PU9         0.0609
     46 H17         3.9816    9.9906   25.2656 H         1 PU9         0.0609
     47 H18         2.0900    7.6594   25.8788 H         1 PU9         0.0300
     48 H19         3.8789    7.6091   26.0339 H         1 PU9         0.0300
     49 H20         2.4824    8.3664   23.4460 H         1 PU9         0.0398
     50 H21         2.8368    6.6609   23.8846 H         1 PU9         0.0398
     51 H22         6.6931    8.0572   22.7512 H         1 PU9         0.1228
@<TRIPOS>BOND
     1    1    2 1  
     2    2    3 ar 
     3    2   13 ar 
     4    3    4 1  
     5    3    6 ar 
     6    4    5 1  
     7    6    7 1  
     8    6    9 ar 
     9    7    8 1  
    10    9   10 1  
    11    9   12 ar 
    12   10   11 1  
    13   12   13 ar 
    14   13   14 1  
    15   14   15 1  
    16   15   16 2  
    17   15   24 1  
    18   16   17 1  
    19   17   18 ar 
    20   17   20 ar 
    21   18   19 1  
    22   18   23 ar 
    23   20   21 ar 
    24   20   24 1  
    25   21   22 ar 
    26   22   23 ar 
    27   24   25 1  
    28   25   26 1  
    29   26   27 1  
    30   27   28 1  
    31   28   29 3  
    32    5   30 1  
    33    5   31 1  
    34    5   32 1  
    35    8   33 1  
    36    8   34 1  
    37    8   35 1  
    38   11   36 1  
    39   11   37 1  
    40   11   38 1  
    41   12   39 1  
    42   14   40 1  
    43   14   41 1  
    44   19   42 1  
    45   19   43 1  
    46   22   44 1  
    47   25   45 1  
    48   25   46 1  
    49   26   47 1  
    50   26   48 1  
    51   27   49 1  
    52   27   50 1  
    53   29   51 1  
@<TRIPOS>SUBSTRUCTURE
     1 PU9         1

