### 
### Created by X-TOOL on Mon Sep 10 21:12:51 2018
### 

@<TRIPOS>MOLECULE
1uyf_ligand
   51    53     1     0     0
SMALL
GAST_HUCK


@<TRIPOS>ATOM
      1 CL          2.3120   14.0680   24.3150 Cl        1 PU1        -0.0972
      2 C13         3.8980   13.2920   24.2100 C.ar      1 PU1         0.0521
      3 C15         5.0260   13.9110   24.7110 C.ar      1 PU1         0.1197
      4 O3          5.1190   15.1390   25.3580 O.3       1 PU1        -0.3287
      5 C20         4.1260   15.7230   26.1350 C.3       1 PU1         0.0565
      6 C17         6.2650   13.3670   24.6310 C.ar      1 PU1         0.1408
      7 O2          7.3090   14.0870   25.2130 O.3       1 PU1        -0.3338
      8 C19         7.7660   15.2710   24.5720 C.3       1 PU1         0.0527
      9 C16         6.5020   12.1950   24.0430 C.ar      1 PU1         0.1060
     10 O1          7.8340   11.7330   24.1060 O.3       1 PU1        -0.3292
     11 C18         8.1810   10.7080   23.1560 C.3       1 PU1         0.0565
     12 C14         5.4270   11.5070   23.5020 C.ar      1 PU1        -0.0468
     13 C12         4.1400   12.0430   23.5720 C.ar      1 PU1        -0.0367
     14 C6          3.0410   11.2150   22.9470 C.3       1 PU1         0.0529
     15 C5          1.8300   11.0150   23.8120 C.2       1 PU1         0.1335
     16 N3          0.6270   11.4450   23.5600 N.2       1 PU1        -0.3109
     17 C2         -0.1750   10.9720   24.6730 C.ar      1 PU1         0.0850
     18 C3         -1.4840   11.1340   24.9560 C.ar      1 PU1         0.1205
     19 N5         -2.4570   11.8080   24.1250 N.pl3     1 PU1        -0.3179
     20 C1          0.5830   10.3140   25.5770 C.ar      1 PU1         0.1470
     21 N1          0.1470    9.8430   26.7050 N.ar      1 PU1        -0.2447
     22 C4         -1.1360   10.0080   26.9530 C.ar      1 PU1         0.2581
     23 N2         -1.8970   10.6050   26.0990 N.ar      1 PU1        -0.2400
     24 N4          1.9230   10.3260   25.0990 N.pl3     1 PU1        -0.2189
     25 C7          3.0880    9.6600   25.7080 C.3       1 PU1         0.0608
     26 C8          2.9510    8.1510   25.6090 C.3       1 PU1        -0.0149
     27 C9          3.3900    7.4800   24.3360 C.3       1 PU1         0.0113
     28 C10         4.7800    7.7670   23.7480 C.1       1 PU1        -0.1055
     29 C11         5.8230    8.0360   23.2680 C.1       1 PU1        -0.1192
     30 F          -1.6960    9.5510   28.0950 F         1 PU1        -0.1382
     31 H1          4.4816   16.6912   26.5174 H         1 PU1         0.0573
     32 H2          3.8849   15.0613   26.9800 H         1 PU1         0.0573
     33 H3          3.2255   15.8790   25.5228 H         1 PU1         0.0573
     34 H4          8.5861   15.7119   25.1578 H         1 PU1         0.0565
     35 H5          6.9382   15.9918   24.4999 H         1 PU1         0.0565
     36 H6          8.1273   15.0254   23.5625 H         1 PU1         0.0565
     37 H7          9.2348   10.4234   23.2923 H         1 PU1         0.0573
     38 H8          8.0333   11.0893   22.1348 H         1 PU1         0.0573
     39 H9          7.5401    9.8283   23.3152 H         1 PU1         0.0573
     40 H10         5.5866   10.5481   23.0223 H         1 PU1         0.0372
     41 H11         3.4549   10.2251   22.7045 H         1 PU1         0.0661
     42 H12         2.7207   11.7153   22.0212 H         1 PU1         0.0661
     43 H13        -3.4373   11.8781   24.4333 H         1 PU1         0.1811
     44 H14        -2.1697   12.2180   23.2248 H         1 PU1         0.1811
     45 H15         3.1568    9.9483   26.7673 H         1 PU1         0.0608
     46 H16         4.0011    9.9756   25.1820 H         1 PU1         0.0608
     47 H17         1.8878    7.9096   25.7552 H         1 PU1         0.0300
     48 H18         3.5420    7.7153   26.4281 H         1 PU1         0.0300
     49 H19         2.6570    7.7565   23.5639 H         1 PU1         0.0398
     50 H20         3.3410    6.3961   24.5168 H         1 PU1         0.0398
     51 H21         6.7570    8.2769   22.8382 H         1 PU1         0.1228
@<TRIPOS>BOND
     1    1    2 1  
     2    2    3 ar 
     3    2   13 ar 
     4    3    4 1  
     5    3    6 ar 
     6    4    5 1  
     7    6    7 1  
     8    6    9 ar 
     9    7    8 1  
    10    9   10 1  
    11    9   12 ar 
    12   10   11 1  
    13   12   13 ar 
    14   13   14 1  
    15   14   15 1  
    16   15   16 2  
    17   15   24 1  
    18   16   17 1  
    19   17   18 ar 
    20   17   20 ar 
    21   18   19 1  
    22   18   23 ar 
    23   20   21 ar 
    24   20   24 1  
    25   21   22 ar 
    26   22   23 ar 
    27   22   30 1  
    28   24   25 1  
    29   25   26 1  
    30   26   27 1  
    31   27   28 1  
    32   28   29 3  
    33    5   31 1  
    34    5   32 1  
    35    5   33 1  
    36    8   34 1  
    37    8   35 1  
    38    8   36 1  
    39   11   37 1  
    40   11   38 1  
    41   11   39 1  
    42   12   40 1  
    43   14   41 1  
    44   14   42 1  
    45   19   43 1  
    46   19   44 1  
    47   25   45 1  
    48   25   46 1  
    49   26   47 1  
    50   26   48 1  
    51   27   49 1  
    52   27   50 1  
    53   29   51 1  
@<TRIPOS>SUBSTRUCTURE
     1 PU1         1

