### 
### Created by X-TOOL on Mon Sep 10 21:12:51 2018
### 

@<TRIPOS>MOLECULE
1uyg_ligand
   36    38     1     0     0
SMALL
GAST_HUCK


@<TRIPOS>ATOM
      1 C18         7.6810   10.0890   22.8450 C.3       1 PU2         0.0555
      2 N2          2.2600    9.9580   25.3190 N.pl3     1 PU2        -0.2334
      3 C12         1.0480   10.0930   25.7560 C.ar      1 PU2         0.1445
      4 N4          0.5710    9.6940   26.9140 N.ar      1 PU2        -0.2449
      5 C14        -0.7110    9.9290   27.0940 C.ar      1 PU2         0.2581
      6 C9          3.5150   10.5050   23.2700 C.3       1 PU2         0.0576
      7 N3         -1.5560   10.4980   26.2430 N.ar      1 PU2        -0.2401
      8 C11         0.2840   10.6970   24.8250 C.ar      1 PU2         0.0848
      9 C13        -1.0660   10.8650   25.0730 C.ar      1 PU2         0.1205
     10 N5         -1.9680   11.4750   24.1540 N.pl3     1 PU2        -0.3179
     11 N1          1.0320   10.9440   23.7520 N.2       1 PU2        -0.3111
     12 C10         2.2550   10.4610   24.0760 C.2       1 PU2         0.1309
     13 C1          5.7960   11.5440   23.4120 C.ar      1 PU2         0.0841
     14 C6          4.4370   11.6390   23.6640 C.ar      1 PU2        -0.0023
     15 C5          3.9210   12.7510   24.2870 C.ar      1 PU2        -0.0370
     16 C2          6.6830   12.5560   23.7270 C.ar      1 PU2        -0.0473
     17 C3          6.1770   13.6970   24.3390 C.ar      1 PU2        -0.0482
     18 C4          4.8010   13.7840   24.6080 C.ar      1 PU2         0.0734
     19 F1         -1.3040    9.4820   28.5200 F         1 PU2        -0.1382
     20 O1          4.2350   14.9180   25.2610 O.3       1 PU2        -0.3300
     21 O2          6.2690   10.3840   22.8050 O.3       1 PU2        -0.3316
     22 C7          5.0310   16.0220   25.7110 C.3       1 PU2         0.0568
     23 H1          7.8726    9.1416   22.3199 H         1 PU2         0.0570
     24 H2          8.0077   10.0007   23.8916 H         1 PU2         0.0570
     25 H3          8.2391   10.8997   22.3538 H         1 PU2         0.0570
     26 H4          3.0608    9.5494   25.8217 H         1 PU2         0.2367
     27 H5          3.2475   10.6245   22.2097 H         1 PU2         0.0659
     28 H6          4.0514    9.5546   23.4080 H         1 PU2         0.0659
     29 H7         -1.6332   11.7785   23.2284 H         1 PU2         0.1811
     30 H8         -2.9548   11.6124   24.4153 H         1 PU2         0.1811
     31 H9          2.8649   12.8222   24.5209 H         1 PU2         0.0459
     32 H10         7.7397   12.4630   23.5039 H         1 PU2         0.0497
     33 H11         6.8388   14.5128   24.6064 H         1 PU2         0.0462
     34 H12         4.3814   16.7744   26.1821 H         1 PU2         0.0573
     35 H13         5.5515   16.4725   24.8531 H         1 PU2         0.0573
     36 H14         5.7708   15.6663   26.4432 H         1 PU2         0.0573
@<TRIPOS>BOND
     1   21    1 1  
     2    2    3 1  
     3   12    2 1  
     4    3    4 ar 
     5    8    3 ar 
     6    4    5 ar 
     7    7    5 ar 
     8    5   19 1  
     9    6   12 1  
    10   14    6 1  
    11    9    7 ar 
    12    8    9 ar 
    13   11    8 1  
    14    9   10 1  
    15   12   11 2  
    16   13   14 ar 
    17   13   16 ar 
    18   13   21 1  
    19   14   15 ar 
    20   15   18 ar 
    21   16   17 ar 
    22   17   18 ar 
    23   18   20 1  
    24   20   22 1  
    25    1   23 1  
    26    1   24 1  
    27    1   25 1  
    28    2   26 1  
    29    6   27 1  
    30    6   28 1  
    31   10   29 1  
    32   10   30 1  
    33   15   31 1  
    34   16   32 1  
    35   17   33 1  
    36   22   34 1  
    37   22   35 1  
    38   22   36 1  
@<TRIPOS>SUBSTRUCTURE
     1 PU2         1

