### 
### Created by X-TOOL on Mon Sep 10 21:12:52 2018
### 

@<TRIPOS>MOLECULE
1uyh_ligand
   48    50     1     0     0
SMALL
GAST_HUCK


@<TRIPOS>ATOM
      1 C19         7.6600   10.1370   22.8270 C.3       1 PU0         0.0555
      2 C5          6.5610   12.6060   23.9570 C.ar      1 PU0        -0.0473
      3 O20         6.2680   10.4730   22.8830 O.3       1 PU0        -0.3316
      4 C6          5.7460   11.5810   23.4960 C.ar      1 PU0         0.0841
      5 C4          6.0280   13.7640   24.5690 C.ar      1 PU0        -0.0482
      6 C3          4.6400   13.8430   24.7210 C.ar      1 PU0         0.0734
      7 O2          4.0570   14.9380   25.2980 O.3       1 PU0        -0.3300
      8 C8          4.7890   16.0680   25.7960 C.3       1 PU0         0.0568
      9 C2          3.8030   12.8220   24.2300 C.ar      1 PU0        -0.0370
     10 C1          4.3340   11.6820   23.6210 C.ar      1 PU0        -0.0023
     11 C9          3.4310   10.5670   23.0940 C.3       1 PU0         0.0578
     12 C10         2.1840   10.4650   23.9250 C.2       1 PU0         0.1334
     13 N1          0.9310   10.9810   23.6270 N.2       1 PU0        -0.3110
     14 C11         0.1520   10.6510   24.6980 C.ar      1 PU0         0.0850
     15 C13        -1.2090   10.8330   24.9700 C.ar      1 PU0         0.1205
     16 N5         -2.0560   11.4690   24.0840 N.pl3     1 PU0        -0.3179
     17 C12         0.9420    9.9900   25.6220 C.ar      1 PU0         0.1470
     18 N4          0.4270    9.5620   26.7940 N.ar      1 PU0        -0.2447
     19 C14        -0.8970    9.7890   27.0310 C.ar      1 PU0         0.2581
     20 N3         -1.6890   10.3960   26.1580 N.ar      1 PU0        -0.2401
     21 N2          2.1790    9.8520   25.1220 N.pl3     1 PU0        -0.2190
     22 C15         3.3630    9.2450   25.7890 C.3       1 PU0         0.0599
     23 C16         3.3520    7.7240   25.8130 C.3       1 PU0        -0.0260
     24 C17         3.8830    7.0990   24.5370 C.3       1 PU0        -0.0535
     25 C18         5.2980    7.5180   24.1720 C.3       1 PU0        -0.0652
     26 F1         -1.4630    9.4060   28.1750 F         1 PU0        -0.1382
     27 H1          7.7879    9.1954   22.2728 H         1 PU0         0.0570
     28 H2          8.0496   10.0169   23.8486 H         1 PU0         0.0570
     29 H3          8.2110   10.9406   22.3165 H         1 PU0         0.0570
     30 H4          7.6354   12.5162   23.8447 H         1 PU0         0.0497
     31 H5          6.6745   14.5648   24.9094 H         1 PU0         0.0462
     32 H6          4.0864   16.8073   26.2081 H         1 PU0         0.0573
     33 H7          5.3619   16.5244   24.9753 H         1 PU0         0.0573
     34 H8          5.4796   15.7383   26.5862 H         1 PU0         0.0573
     35 H9          2.7280   12.9224   24.3263 H         1 PU0         0.0459
     36 H10         3.9735    9.6111   23.1361 H         1 PU0         0.0659
     37 H11         3.1550   10.7864   22.0520 H         1 PU0         0.0659
     38 H12        -3.0524   11.5853   24.3174 H         1 PU0         0.1811
     39 H13        -1.6913   11.8271   23.1898 H         1 PU0         0.1811
     40 H14         3.3973    9.6063   26.8274 H         1 PU0         0.0608
     41 H15         4.2667    9.5753   25.2558 H         1 PU0         0.0608
     42 H16         2.3164    7.3848   25.9629 H         1 PU0         0.0291
     43 H17         3.9746    7.3837   26.6535 H         1 PU0         0.0291
     44 H18         3.2159    7.3853   23.7106 H         1 PU0         0.0263
     45 H19         3.8687    6.0058   24.6579 H         1 PU0         0.0263
     46 H20         5.5988    7.0194   23.2387 H         1 PU0         0.0230
     47 H21         5.9860    7.2291   24.9802 H         1 PU0         0.0230
     48 H22         5.3331    8.6086   24.0328 H         1 PU0         0.0230
@<TRIPOS>BOND
     1    3    1 1  
     2    4    2 ar 
     3    2    5 ar 
     4    3    4 1  
     5    4   10 ar 
     6    5    6 ar 
     7    6    7 1  
     8    6    9 ar 
     9    7    8 1  
    10    9   10 ar 
    11   10   11 1  
    12   11   12 1  
    13   12   13 2  
    14   12   21 1  
    15   13   14 1  
    16   14   15 ar 
    17   14   17 ar 
    18   15   16 1  
    19   15   20 ar 
    20   17   18 ar 
    21   17   21 1  
    22   18   19 ar 
    23   19   20 ar 
    24   19   26 1  
    25   21   22 1  
    26   22   23 1  
    27   23   24 1  
    28   24   25 1  
    29    1   27 1  
    30    1   28 1  
    31    1   29 1  
    32    2   30 1  
    33    5   31 1  
    34    8   32 1  
    35    8   33 1  
    36    8   34 1  
    37    9   35 1  
    38   11   36 1  
    39   11   37 1  
    40   16   38 1  
    41   16   39 1  
    42   22   40 1  
    43   22   41 1  
    44   23   42 1  
    45   23   43 1  
    46   24   44 1  
    47   24   45 1  
    48   25   46 1  
    49   25   47 1  
    50   25   48 1  
@<TRIPOS>SUBSTRUCTURE
     1 PU0         1

