### 
### Created by X-TOOL on Mon Sep 10 21:12:51 2018
### 

@<TRIPOS>MOLECULE
1uyi_ligand
   47    49     1     0     0
SMALL
GAST_HUCK


@<TRIPOS>ATOM
      1 C19         5.1990    7.9820   29.0130 C.1       1 PUZ        -0.1192
      2 C18         4.9810    7.6540   27.7770 C.1       1 PUZ        -0.1055
      3 C17         4.6800    7.2890   26.3660 C.3       1 PUZ         0.0113
      4 C16         3.3540    7.9330   25.9080 C.3       1 PUZ        -0.0149
      5 C15         3.4660    9.4610   26.0310 C.3       1 PUZ         0.0608
      6 N2          2.2830   10.0330   25.3560 N.pl3     1 PUZ        -0.2189
      7 C12         1.0330   10.1470   25.8500 C.ar      1 PUZ         0.1470
      8 N4          0.5660    9.7670   27.0420 N.ar      1 PUZ        -0.2447
      9 C11         0.2250   10.7470   24.9230 C.ar      1 PUZ         0.0850
     10 C13        -1.1230   10.9340   25.2300 C.ar      1 PUZ         0.1205
     11 N5         -2.0080   11.4920   24.3850 N.pl3     1 PUZ        -0.3179
     12 N3         -1.5600   10.5490   26.4280 N.ar      1 PUZ        -0.2401
     13 C14        -0.7260    9.9790   27.3070 C.ar      1 PUZ         0.2581
     14 F1         -1.1800    9.6000   28.4740 F         1 PUZ        -0.1382
     15 N1          0.9970   11.0240   23.8410 N.2       1 PUZ        -0.3110
     16 C10         2.2460   10.5480   24.1200 C.2       1 PUZ         0.1334
     17 C9          3.4810   10.6170   23.2590 C.3       1 PUZ         0.0578
     18 C1          4.3670   11.7960   23.6460 C.ar      1 PUZ        -0.0023
     19 C2          5.7400   11.7320   23.3330 C.ar      1 PUZ         0.0841
     20 O2          6.2150   10.5960   22.7090 O.3       1 PUZ        -0.3316
     21 C7          7.4960   10.0370   23.0230 C.3       1 PUZ         0.0555
     22 C3          6.6110   12.8020   23.6220 C.ar      1 PUZ        -0.0473
     23 C4          6.0550   13.9340   24.2360 C.ar      1 PUZ        -0.0482
     24 C5          4.6950   13.9950   24.5770 C.ar      1 PUZ         0.0734
     25 C6          3.8370   12.9190   24.2740 C.ar      1 PUZ        -0.0370
     26 O5          4.1630   15.1080   25.1890 O.3       1 PUZ        -0.3300
     27 C8          4.9430   16.2520   25.5770 C.3       1 PUZ         0.0568
     28 H1          5.3765    8.2490   30.0192 H         1 PUZ         0.1228
     29 H2          4.5970    6.1951   26.2856 H         1 PUZ         0.0398
     30 H3          5.4961    7.6434   25.7192 H         1 PUZ         0.0398
     31 H4          2.5311    7.5721   26.5425 H         1 PUZ         0.0300
     32 H5          3.1556    7.6617   24.8606 H         1 PUZ         0.0300
     33 H6          4.3870    9.8134   25.5435 H         1 PUZ         0.0608
     34 H7          3.4762    9.7556   27.0908 H         1 PUZ         0.0608
     35 H8         -2.9917   11.6034   24.6692 H         1 PUZ         0.1811
     36 H9         -1.7021   11.8079   23.4536 H         1 PUZ         0.1811
     37 H10         3.1779   10.7278   22.2074 H         1 PUZ         0.0659
     38 H11         4.0532    9.6853   23.3795 H         1 PUZ         0.0659
     39 H12         7.6653    9.1404   22.4086 H         1 PUZ         0.0570
     40 H13         7.5253    9.7627   24.0878 H         1 PUZ         0.0570
     41 H14         8.2810   10.7786   22.8136 H         1 PUZ         0.0570
     42 H15         7.6664   12.7521   23.3798 H         1 PUZ         0.0497
     43 H16         6.6923   14.7837   24.4527 H         1 PUZ         0.0462
     44 H17         2.7836   12.9652   24.5255 H         1 PUZ         0.0459
     45 H18         4.2871   17.0019   26.0434 H         1 PUZ         0.0573
     46 H19         5.4232   16.6870   24.6881 H         1 PUZ         0.0573
     47 H20         5.7153   15.9423   26.2964 H         1 PUZ         0.0573
@<TRIPOS>BOND
     1    1    2 3  
     2    2    3 1  
     3    3    4 1  
     4    4    5 1  
     5    5    6 1  
     6    6    7 1  
     7    6   16 1  
     8    7    8 ar 
     9    7    9 ar 
    10    8   13 ar 
    11    9   10 ar 
    12    9   15 1  
    13   10   11 1  
    14   10   12 ar 
    15   12   13 ar 
    16   13   14 1  
    17   15   16 2  
    18   16   17 1  
    19   17   18 1  
    20   18   19 ar 
    21   18   25 ar 
    22   19   20 1  
    23   19   22 ar 
    24   20   21 1  
    25   22   23 ar 
    26   23   24 ar 
    27   24   25 ar 
    28   24   26 1  
    29   26   27 1  
    30    1   28 1  
    31    3   29 1  
    32    3   30 1  
    33    4   31 1  
    34    4   32 1  
    35    5   33 1  
    36    5   34 1  
    37   11   35 1  
    38   11   36 1  
    39   17   37 1  
    40   17   38 1  
    41   21   39 1  
    42   21   40 1  
    43   21   41 1  
    44   22   42 1  
    45   23   43 1  
    46   25   44 1  
    47   27   45 1  
    48   27   46 1  
    49   27   47 1  
@<TRIPOS>SUBSTRUCTURE
     1 PUZ         1

