### 
### Created by X-TOOL on Mon Sep 10 21:12:51 2018
### 

@<TRIPOS>MOLECULE
1uyk_ligand
   43    46     1     0     0
SMALL
GAST_HUCK


@<TRIPOS>ATOM
      1 C18         5.3940    7.6590   24.4680 C.3       1 PUX        -0.0652
      2 C17         4.0100    7.1350   24.8390 C.3       1 PUX        -0.0535
      3 C16         3.3890    7.7240   26.1230 C.3       1 PUX        -0.0260
      4 C15         3.2200    9.2470   26.2410 C.3       1 PUX         0.0599
      5 N2          2.0930    9.8900   25.5500 N.pl3     1 PUX        -0.2189
      6 C12         0.8250   10.0070   26.0520 C.ar      1 PUX         0.1470
      7 N4          0.3140    9.5400   27.2570 N.ar      1 PUX        -0.2447
      8 C14        -0.9760    9.6780   27.6180 C.ar      1 PUX         0.2581
      9 N3         -1.7200   10.3440   26.6920 N.ar      1 PUX        -0.2401
     10 C11         0.0060   10.6760   25.1210 C.ar      1 PUX         0.0850
     11 C13        -1.3120   10.8640   25.4670 C.ar      1 PUX         0.1205
     12 N5         -2.1950   11.5520   24.6520 N.pl3     1 PUX        -0.3179
     13 N1          0.7570   10.9790   24.0390 N.2       1 PUX        -0.3109
     14 C10         2.0730   10.5310   24.2650 C.2       1 PUX         0.1335
     15 C9          3.3060   10.7450   23.2830 C.3       1 PUX         0.0544
     16 C1          4.1450   11.9080   23.7980 C.ar      1 PUX        -0.0429
     17 C6          3.5400   13.0490   24.3440 C.ar      1 PUX        -0.0368
     18 C5          4.4210   14.0360   24.8000 C.ar      1 PUX         0.1176
     19 C2          5.5280   11.7650   23.7620 C.ar      1 PUX        -0.0771
     20 O3          4.1730   15.2730   25.3690 O.3       1 PUX        -0.2926
     21 C3          6.4250   12.7800   24.2490 C.ar      1 PUX        -0.0471
     22 C4          5.7770   13.9010   24.7390 C.ar      1 PUX         0.1165
     23 O1          6.3090   14.9930   25.2870 O.3       1 PUX        -0.2952
     24 C7          5.3560   15.8990   25.8170 C.3       1 PUX         0.1855
     25 F          -1.8330    9.3920   29.0180 F         1 PUX        -0.1382
     26 H1          5.7342    7.1723   23.5421 H         1 PUX         0.0230
     27 H2          6.1007    7.4355   25.2807 H         1 PUX         0.0230
     28 H3          5.3449    8.7470   24.3136 H         1 PUX         0.0230
     29 H4          4.0860    6.0455   24.9704 H         1 PUX         0.0263
     30 H5          3.3302    7.3570   24.0032 H         1 PUX         0.0263
     31 H6          4.0232    7.4046   26.9631 H         1 PUX         0.0291
     32 H7          2.3883    7.2800   26.2295 H         1 PUX         0.0291
     33 H8          4.1414    9.7056   25.8528 H         1 PUX         0.0608
     34 H9          3.1178    9.4790   27.3114 H         1 PUX         0.0608
     35 H10        -1.8747   11.9296   23.7488 H         1 PUX         0.1811
     36 H11        -3.1721   11.6862   24.9489 H         1 PUX         0.1811
     37 H12         2.9384   10.9732   22.2717 H         1 PUX         0.0660
     38 H13         3.9183    9.8317   23.2532 H         1 PUX         0.0660
     39 H14         2.4635   13.1590   24.4085 H         1 PUX         0.0456
     40 H15         5.9468   10.8535   23.3511 H         1 PUX         0.0442
     41 H16         7.5040   12.6766   24.2336 H         1 PUX         0.0494
     42 H17         5.4037   15.9505   26.9147 H         1 PUX         0.0971
     43 H18         5.4711   16.9092   25.3972 H         1 PUX         0.0971
@<TRIPOS>BOND
     1    1    2 1  
     2    2    3 1  
     3    3    4 1  
     4    4    5 1  
     5    5    6 1  
     6    5   14 1  
     7    6    7 ar 
     8    6   10 ar 
     9    7    8 ar 
    10    8    9 ar 
    11    8   25 1  
    12    9   11 ar 
    13   10   11 ar 
    14   10   13 1  
    15   11   12 1  
    16   13   14 2  
    17   14   15 1  
    18   15   16 1  
    19   16   17 ar 
    20   16   19 ar 
    21   17   18 ar 
    22   18   20 1  
    23   18   22 ar 
    24   19   21 ar 
    25   20   24 1  
    26   21   22 ar 
    27   22   23 1  
    28   23   24 1  
    29    1   26 1  
    30    1   27 1  
    31    1   28 1  
    32    2   29 1  
    33    2   30 1  
    34    3   31 1  
    35    3   32 1  
    36    4   33 1  
    37    4   34 1  
    38   12   35 1  
    39   12   36 1  
    40   15   37 1  
    41   15   38 1  
    42   17   39 1  
    43   19   40 1  
    44   21   41 1  
    45   24   42 1  
    46   24   43 1  
@<TRIPOS>SUBSTRUCTURE
     1 PUX         1

