### 
### Created by X-TOOL on Mon Sep 10 21:12:52 2018
### 

@<TRIPOS>MOLECULE
1uym_ligand
   52    54     1     0     0
SMALL
GAST_HUCK


@<TRIPOS>ATOM
      1 C19         8.4640   10.0760   22.9460 C.3       1 PU3         0.0563
      2 O3          8.3440   11.2560   23.7340 O.3       1 PU3        -0.3296
      3 C5          6.9910   11.6300   24.0410 C.ar      1 PU3         0.1054
      4 C6          5.7600   11.0910   23.3580 C.ar      1 PU3        -0.0477
      5 C4          6.7610   12.9230   24.7240 C.ar      1 PU3         0.1399
      6 O1          7.8080   13.5830   25.4380 O.3       1 PU3        -0.3338
      7 C7          8.3080   14.6680   24.6630 C.3       1 PU3         0.0527
      8 C3          5.3520   13.3220   25.0060 C.ar      1 PU3         0.1054
      9 O2          5.2000   14.5000   25.8540 O.3       1 PU3        -0.3296
     10 C8          4.4290   15.6400   25.5330 C.3       1 PU3         0.0563
     11 C2          4.3980   12.6900   24.4120 C.ar      1 PU3        -0.0477
     12 C1          4.5540   11.6470   23.6670 C.ar      1 PU3        -0.0506
     13 C9          3.3500   10.9700   23.0240 C.3       1 PU3         0.0534
     14 C10         2.1830   10.7420   23.9560 C.2       1 PU3         0.1361
     15 N1          0.9210   11.2490   23.7430 N.2       1 PU3        -0.3061
     16 C11         0.1450   10.8330   24.7520 C.ar      1 PU3         0.0921
     17 C13        -1.2660   11.0070   25.1640 C.ar      1 PU3         0.1251
     18 N5         -2.1020   11.7400   24.4230 N.pl3     1 PU3        -0.3168
     19 C12         1.0160   10.0430   25.5830 C.ar      1 PU3         0.1543
     20 N4          0.5640    9.4680   26.7350 N.ar      1 PU3        -0.2744
     21 C14        -0.8260    9.6280   27.1630 C.ar      1 PU3         0.0509
     22 N3         -1.6180   10.4520   26.2380 N.ar      1 PU3        -0.2729
     23 N2          2.2420    9.9970   25.0830 N.pl3     1 PU3        -0.2160
     24 C15         3.3880    9.2670   25.6110 C.3       1 PU3         0.0604
     25 C16         3.2360    7.8460   25.0520 C.3       1 PU3        -0.0259
     26 C17         4.5380    7.0580   24.9490 C.3       1 PU3        -0.0535
     27 C18         5.2630    7.3030   23.6400 C.3       1 PU3        -0.0652
     28 H1          9.5276    9.8658   22.7602 H         1 PU3         0.0572
     29 H2          7.9460   10.2215   21.9866 H         1 PU3         0.0572
     30 H3          8.0112    9.2292   23.4825 H         1 PU3         0.0572
     31 H4          5.8317   10.2823   22.6398 H         1 PU3         0.0371
     32 H5          9.1135   15.1731   25.2162 H         1 PU3         0.0565
     33 H6          7.4953   15.3824   24.4650 H         1 PU3         0.0565
     34 H7          8.7015   14.2867   23.7092 H         1 PU3         0.0565
     35 H8          4.4955   16.3703   26.3529 H         1 PU3         0.0572
     36 H9          3.3792   15.3443   25.3897 H         1 PU3         0.0572
     37 H10         4.8121   16.0928   24.6066 H         1 PU3         0.0572
     38 H11         3.3891   13.0623   24.5483 H         1 PU3         0.0371
     39 H12         3.6733    9.9935   22.6343 H         1 PU3         0.0663
     40 H13         3.0057   11.6013   22.1916 H         1 PU3         0.0663
     41 H14        -3.0825   11.8566   24.7160 H         1 PU3         0.1811
     42 H15        -1.7659   12.1884   23.5588 H         1 PU3         0.1811
     43 H16        -1.2293    9.1857   28.0667 H         1 PU3         0.0978
     44 H17         3.3674    9.2554   26.7107 H         1 PU3         0.0609
     45 H18         4.3291    9.7206   25.2666 H         1 PU3         0.0609
     46 H19         2.7993    7.9190   24.0450 H         1 PU3         0.0291
     47 H20         2.5508    7.2908   25.7095 H         1 PU3         0.0291
     48 H21         4.3084    5.9853   25.0296 H         1 PU3         0.0263
     49 H22         5.1969    7.3554   25.7781 H         1 PU3         0.0263
     50 H23         6.1910    6.7128   23.6188 H         1 PU3         0.0230
     51 H24         5.5062    8.3720   23.5500 H         1 PU3         0.0230
     52 H25         4.6178    7.0019   22.8015 H         1 PU3         0.0230
@<TRIPOS>BOND
     1    1    2 1  
     2    2    3 1  
     3    3    4 ar 
     4    3    5 ar 
     5    4   12 ar 
     6    5    6 1  
     7    5    8 ar 
     8    6    7 1  
     9    8    9 1  
    10    8   11 ar 
    11    9   10 1  
    12   11   12 ar 
    13   12   13 1  
    14   13   14 1  
    15   14   15 2  
    16   14   23 1  
    17   15   16 1  
    18   16   17 ar 
    19   16   19 ar 
    20   17   18 1  
    21   17   22 ar 
    22   19   20 ar 
    23   19   23 1  
    24   20   21 ar 
    25   21   22 ar 
    26   23   24 1  
    27   24   25 1  
    28   25   26 1  
    29   26   27 1  
    30    1   28 1  
    31    1   29 1  
    32    1   30 1  
    33    4   31 1  
    34    7   32 1  
    35    7   33 1  
    36    7   34 1  
    37   10   35 1  
    38   10   36 1  
    39   10   37 1  
    40   11   38 1  
    41   13   39 1  
    42   13   40 1  
    43   18   41 1  
    44   18   42 1  
    45   21   43 1  
    46   24   44 1  
    47   24   45 1  
    48   25   46 1  
    49   25   47 1  
    50   26   48 1  
    51   26   49 1  
    52   27   50 1  
    53   27   51 1  
    54   27   52 1  
@<TRIPOS>SUBSTRUCTURE
     1 PU3         1

