### 
### Created by X-TOOL on Mon Sep 10 21:12:52 2018
### 

@<TRIPOS>MOLECULE
1uys_ligand
   34    35     1     0     0
SMALL
GAST_HUCK


@<TRIPOS>ATOM
      1 O1A        -0.4320   19.6980  -23.6330 O.co2     1 H1L        -0.5661
      2 C1          0.0050   18.8510  -22.8410 C.2       1 H1L         0.0680
      3 O1B         1.1880   18.4950  -22.9160 O.co2     1 H1L        -0.5661
      4 C2         -0.9040   18.2590  -21.7910 C.3       1 H1L         0.1286
      5 C2A        -1.8940   17.2720  -22.4230 C.3       1 H1L        -0.0224
      6 O2         -0.0850   17.5570  -20.8320 O.3       1 H1L        -0.3062
      7 C3         -0.1460   18.0510  -19.5930 C.ar      1 H1L         0.0856
      8 C4         -0.1350   19.4240  -19.3000 C.ar      1 H1L        -0.0379
      9 C5         -0.0540   19.8720  -17.9730 C.ar      1 H1L        -0.0323
     10 C6         -0.1000   17.1270  -18.5210 C.ar      1 H1L        -0.0379
     11 C7         -0.0320   17.5800  -17.2190 C.ar      1 H1L        -0.0323
     12 C8          0.0080   18.9480  -16.9610 C.ar      1 H1L         0.1212
     13 O8          0.2570   19.3490  -15.6510 O.3       1 H1L        -0.2218
     14 C9         -0.8660   19.4940  -14.8980 C.ar      1 H1L         0.2365
     15 N9         -2.0280   19.0590  -15.2960 N.ar      1 H1L        -0.2297
     16 C10        -3.1400   19.1600  -14.5220 C.ar      1 H1L         0.0347
     17 C11        -3.0550   19.7300  -13.2910 C.ar      1 H1L         0.0599
     18 C12        -4.2850   19.8330  -12.3950 C.3       1 H1L         0.3703
     19 F1         -5.3510   19.3610  -13.0280 F         1 H1L        -0.2292
     20 F2         -4.0590   19.1190  -11.2980 F         1 H1L        -0.2292
     21 F3         -4.5130   21.0920  -12.0620 F         1 H1L        -0.2292
     22 C13        -1.8400   20.2240  -12.8210 C.ar      1 H1L        -0.0091
     23 C14        -0.7030   20.1120  -13.6400 C.ar      1 H1L         0.1292
     24 CL14        0.8220   20.6720  -13.1410 Cl        1 H1L        -0.0595
     25 H1         -1.4611   19.0641  -21.2895 H         1 H1L         0.0815
     26 H2         -2.5448   16.8540  -21.6408 H         1 H1L         0.0276
     27 H3         -1.3387   16.4578  -22.9116 H         1 H1L         0.0276
     28 H4         -2.5084   17.7964  -23.1696 H         1 H1L         0.0276
     29 H5         -0.1897   20.1453  -20.1073 H         1 H1L         0.0524
     30 H6         -0.0406   20.9329  -17.7506 H         1 H1L         0.0545
     31 H7         -0.1182   16.0622  -18.7232 H         1 H1L         0.0524
     32 H8         -0.0098   16.8720  -16.3984 H         1 H1L         0.0545
     33 H9         -4.0912   18.7875  -14.8847 H         1 H1L         0.1054
     34 H10        -1.7728   20.6858  -11.8426 H         1 H1L         0.0914
@<TRIPOS>BOND
     1    1    2 ar 
     2    2    3 ar 
     3    2    4 1  
     4    4    5 1  
     5    4    6 1  
     6    6    7 1  
     7    7    8 ar 
     8    7   10 ar 
     9    8    9 ar 
    10    9   12 ar 
    11   10   11 ar 
    12   11   12 ar 
    13   12   13 1  
    14   13   14 1  
    15   14   15 ar 
    16   14   23 ar 
    17   15   16 ar 
    18   16   17 ar 
    19   17   18 1  
    20   17   22 ar 
    21   18   19 1  
    22   18   20 1  
    23   18   21 1  
    24   22   23 ar 
    25   23   24 1  
    26    4   25 1  
    27    5   26 1  
    28    5   27 1  
    29    5   28 1  
    30    8   29 1  
    31    9   30 1  
    32   10   31 1  
    33   11   32 1  
    34   16   33 1  
    35   22   34 1  
@<TRIPOS>SUBSTRUCTURE
     1 H1L         1

