### 
### Created by X-TOOL on Mon Sep 10 21:12:51 2018
### 

@<TRIPOS>MOLECULE
1uz1_ligand
   22    22     1     0     0
SMALL
GAST_HUCK


@<TRIPOS>ATOM
      1 O4         -1.5610   10.6260    6.7960 O.3       1 IFL        -0.3864
      2 C4         -1.1240   10.5480    8.1480 C.3       1 IFL         0.1048
      3 C3         -0.4190   11.8890    8.4310 C.3       1 IFL         0.1695
      4 O3          0.8280   12.0360    7.7460 O.3       1 IFL        -0.3688
      5 C2         -0.1070   12.0550    9.9230 C.2       1 IFL         0.2075
      6 N          -0.6710   11.2010   10.8100 N.am      1 IFL        -0.2843
      7 C7         -1.5830   10.0950   10.5180 C.3       1 IFL         0.0385
      8 C5         -2.2760   10.3720    9.1700 C.3       1 IFL         0.0329
      9 C6         -3.2460    9.2490    8.8270 C.3       1 IFL         0.0514
     10 O6         -2.5440    8.0100    8.9160 O.3       1 IFL        -0.3946
     11 O2          0.6250   12.9670   10.2500 O.2       1 IFL        -0.3941
     12 H1         -2.0070    9.8205    6.5615 H         1 IFL         0.2101
     13 H2         -0.4196    9.7103    8.2579 H         1 IFL         0.0649
     14 H3         -1.0948   12.6959    8.1115 H         1 IFL         0.0864
     15 H4          1.2092   12.8790    7.9619 H         1 IFL         0.2134
     16 H5         -0.4380   11.3422   11.7722 H         1 IFL         0.1851
     17 H6         -2.3383   10.0175   11.3139 H         1 IFL         0.0524
     18 H7         -1.0167    9.1540   10.4570 H         1 IFL         0.0524
     19 H8         -2.8483   11.3094    9.2311 H         1 IFL         0.0370
     20 H9         -3.6291    9.3871    7.8052 H         1 IFL         0.0561
     21 H10        -4.0860    9.2527    9.5372 H         1 IFL         0.0561
     22 H11        -1.8184    8.0137    8.3029 H         1 IFL         0.2094
@<TRIPOS>BOND
     1    1    2 1  
     2    2    3 1  
     3    2    8 1  
     4    3    4 1  
     5    3    5 1  
     6    5    6 am 
     7    5   11 2  
     8    6    7 1  
     9    7    8 1  
    10    8    9 1  
    11    9   10 1  
    12    1   12 1  
    13    2   13 1  
    14    3   14 1  
    15    4   15 1  
    16    6   16 1  
    17    7   17 1  
    18    7   18 1  
    19    8   19 1  
    20    9   20 1  
    21    9   21 1  
    22   10   22 1  
@<TRIPOS>SUBSTRUCTURE
     1 IFL         1

