### 
### Created by X-TOOL on Mon Sep 10 21:12:51 2018
### 

@<TRIPOS>MOLECULE
1uz4_ligand
   22    22     1     0     0
SMALL
GAST_HUCK


@<TRIPOS>ATOM
      1 O4         73.7830   13.6110   34.8480 O.3       1 IFL        -0.3864
      2 C4         74.1710   12.7470   33.8070 C.3       1 IFL         0.1048
      3 C3         73.0980   12.9000   32.6800 C.3       1 IFL         0.1695
      4 O3         72.1200   11.8380   32.7920 O.3       1 IFL        -0.3688
      5 C2         73.6370   12.7820   31.2260 C.2       1 IFL         0.2075
      6 N          74.8610   12.2400   31.0840 N.am      1 IFL        -0.2843
      7 C7         75.8340   12.0650   32.1660 C.3       1 IFL         0.0385
      8 C5         75.5890   13.0490   33.3080 C.3       1 IFL         0.0329
      9 C6         76.7530   12.9580   34.3400 C.3       1 IFL         0.0514
     10 O6         76.7790   11.6340   34.9250 O.3       1 IFL        -0.3946
     11 O2         72.8590   12.9750   30.2750 O.2       1 IFL        -0.3941
     12 H1         74.4104   13.5504   35.5587 H         1 IFL         0.2101
     13 H2         74.1564   11.7109   34.1762 H         1 IFL         0.0649
     14 H3         72.6116   13.8789   32.8035 H         1 IFL         0.0864
     15 H4         71.4699   11.9341   32.1060 H         1 IFL         0.2134
     16 H5         75.1268   11.9332   30.1701 H         1 IFL         0.1851
     17 H6         76.8457   12.2275   31.7659 H         1 IFL         0.0524
     18 H7         75.7540   11.0394   32.5554 H         1 IFL         0.0524
     19 H8         75.5929   14.0751   32.9117 H         1 IFL         0.0370
     20 H9         76.5996   13.7056   35.1322 H         1 IFL         0.0561
     21 H10        77.7090   13.1529   33.8321 H         1 IFL         0.0561
     22 H11        75.9531   11.4665   35.3636 H         1 IFL         0.2094
@<TRIPOS>BOND
     1    1    2 1  
     2    2    3 1  
     3    2    8 1  
     4    3    4 1  
     5    3    5 1  
     6    5    6 am 
     7    5   11 2  
     8    6    7 1  
     9    7    8 1  
    10    8    9 1  
    11    9   10 1  
    12    1   12 1  
    13    2   13 1  
    14    3   14 1  
    15    4   15 1  
    16    6   16 1  
    17    7   17 1  
    18    7   18 1  
    19    8   19 1  
    20    9   20 1  
    21    9   21 1  
    22   10   22 1  
@<TRIPOS>SUBSTRUCTURE
     1 IFL         1

