### 
### Created by X-TOOL on Mon Sep 10 21:12:51 2018
### 

@<TRIPOS>MOLECULE
1uz8_ligand
   74    76     1     0     0
SMALL
GAST_HUCK


@<TRIPOS>ATOM
      1 C1          3.7450   18.8730   20.3630 C.3       1 MAG         0.1846
      2 C2          2.3090   19.3940   20.4620 C.3       1 MAG         0.1213
      3 C3          1.4510   19.1240   19.2320 C.3       1 MAG         0.1179
      4 C4          2.2380   19.3440   17.9460 C.3       1 MAG         0.1185
      5 C5          3.5480   18.5690   18.0430 C.3       1 MAG         0.1134
      6 C6          4.3490   18.6230   16.7480 C.3       1 MAG         0.0730
      7 C7          1.7470   19.2360   22.8160 C.2       1 MAG         0.1733
      8 C8          1.3500   18.3040   23.9220 C.3       1 MAG         0.0257
      9 N2          1.6580   18.7490   21.5860 N.am      1 MAG        -0.2766
     10 O1          4.5190   19.5360   21.3430 O.3       1 MAG        -0.3522
     11 O3          0.2900   19.9270   19.2290 O.3       1 MAG        -0.3403
     12 O4          1.4580   18.8710   16.8690 O.3       1 MAG        -0.3401
     13 O5          4.3270   19.0990   19.0930 O.3       1 MAG        -0.3408
     14 O6          4.7940   19.9420   16.5280 O.3       1 MAG        -0.3924
     15 O7          2.1430   20.3750   23.0470 O.2       1 MAG        -0.3974
     16 CM          5.8280   19.0590   21.6280 C.3       1 MAG         0.0395
     17 C1         -0.8750   19.2240   19.6950 C.3       1 FUC         0.1883
     18 C2         -1.8760   20.2430   20.2160 C.3       1 FUC         0.1341
     19 C3         -2.3420   21.1100   19.0540 C.3       1 FUC         0.1140
     20 C4         -2.9840   20.2340   17.9900 C.3       1 FUC         0.1095
     21 C5         -2.0420   19.1000   17.5960 C.3       1 FUC         0.0873
     22 C6         -2.7430   18.1080   16.6690 C.3       1 FUC        -0.0361
     23 O2         -1.2570   21.0010   21.2320 O.3       1 FUC        -0.3841
     24 O3         -3.2630   22.0920   19.4740 O.3       1 FUC        -0.3864
     25 O4         -4.2070   19.7070   18.4510 O.3       1 FUC        -0.3866
     26 O5         -1.5300   18.4250   18.7300 O.3       1 FUC        -0.3431
     27 C1          1.3190   19.8570   15.8280 C.3       1 GAL         0.1884
     28 C2          0.6340   19.2030   14.6300 C.3       1 GAL         0.1341
     29 C3          0.3530   20.2150   13.5260 C.3       1 GAL         0.1141
     30 C4         -0.3920   21.3930   14.1230 C.3       1 GAL         0.1119
     31 C5          0.3980   21.9610   15.2940 C.3       1 GAL         0.1130
     32 C6         -0.2990   23.1690   15.9060 C.3       1 GAL         0.0730
     33 O2          1.4510   18.1910   14.1010 O.3       1 GAL        -0.3841
     34 O3         -0.4270   19.6390   12.4980 O.3       1 GAL        -0.3864
     35 O4         -1.6670   20.9540   14.5310 O.3       1 GAL        -0.3865
     36 O5          0.5640   20.9600   16.2710 O.3       1 GAL        -0.3405
     37 O6          0.4940   23.6320   16.9750 O.3       1 GAL        -0.3924
     38 H1          3.7442   17.7912   20.5621 H         1 MAG         0.0934
     39 H2          2.3480   20.4805   20.6292 H         1 MAG         0.0633
     40 H3          1.1377   18.0701   19.2649 H         1 MAG         0.0649
     41 H4          2.4503   20.4146   17.8091 H         1 MAG         0.0651
     42 H5          3.3145   17.5172   18.2646 H         1 MAG         0.0647
     43 H6          3.7123   18.3057   15.9090 H         1 MAG         0.0584
     44 H7          5.2165   17.9510   16.8246 H         1 MAG         0.0584
     45 H8          1.4642   18.8140   24.8899 H         1 MAG         0.0467
     46 H9          1.9939   17.4125   23.8991 H         1 MAG         0.0467
     47 H10         0.3008   18.0021   23.7882 H         1 MAG         0.0467
     48 H11         1.1283   17.9154   21.4293 H         1 MAG         0.1857
     49 H12         5.2934   19.9760   15.7207 H         1 MAG         0.2095
     50 H13         6.2847   19.6855   22.4083 H         1 MAG         0.0525
     51 H14         6.4414   19.1041   20.7160 H         1 MAG         0.0525
     52 H15         5.7705   18.0185   21.9802 H         1 MAG         0.0525
     53 H16        -0.5625   18.5674   20.5203 H         1 MAG         0.0938
     54 H17        -2.7460   19.7211   20.6411 H         1 MAG         0.0671
     55 H18        -1.4658   21.6145   18.6208 H         1 MAG         0.0648
     56 H19        -3.1814   20.8518   17.1015 H         1 MAG         0.0646
     57 H20        -1.1942   19.5399   17.0504 H         1 MAG         0.0621
     58 H21        -2.0449   17.3017   16.3996 H         1 MAG         0.0255
     59 H22        -3.0721   18.6278   15.7572 H         1 MAG         0.0255
     60 H23        -3.6165   17.6803   17.1828 H         1 MAG         0.0255
     61 H24        -0.4990   21.4484   20.8745 H         1 MAG         0.2101
     62 H25        -4.0333   21.6686   19.8344 H         1 MAG         0.2100
     63 H26        -4.7863   20.4198   18.6937 H         1 MAG         0.2100
     64 H27         2.3177   20.2082   15.5293 H         1 MAG         0.0938
     65 H28        -0.3175   18.7643   14.9649 H         1 MAG         0.0671
     66 H29         1.3071   20.5609   13.1016 H         1 MAG         0.0648
     67 H30        -0.5085   22.1765   13.3598 H         1 MAG         0.0647
     68 H31         1.3879   22.2750   14.9313 H         1 MAG         0.0647
     69 H32        -1.2931   22.8787   16.2767 H         1 MAG         0.0584
     70 H33        -0.4064   23.9610   15.1502 H         1 MAG         0.0584
     71 H34         2.2647   18.5717   13.7918 H         1 MAG         0.2101
     72 H35        -1.2545   19.3423   12.8583 H         1 MAG         0.2100
     73 H36        -2.1356   20.6057   13.7816 H         1 MAG         0.2100
     74 H37         0.5856   22.9422   17.6218 H         1 MAG         0.2095
@<TRIPOS>BOND
     1    2    1 1  
     2    1   10 1  
     3    1   13 1  
     4    2    3 1  
     5    9    2 1  
     6    3    4 1  
     7    3   11 1  
     8    4    5 1  
     9    4   12 1  
    10    5    6 1  
    11   13    5 1  
    12    6   14 1  
    13    7    8 1  
    14    7    9 am 
    15    7   15 2  
    16   10   16 1  
    17   11   17 1  
    18   12   27 1  
    19   17   18 1  
    20   17   26 1  
    21   18   19 1  
    22   18   23 1  
    23   19   20 1  
    24   19   24 1  
    25   20   21 1  
    26   20   25 1  
    27   21   22 1  
    28   21   26 1  
    29   27   28 1  
    30   27   36 1  
    31   28   29 1  
    32   28   33 1  
    33   29   30 1  
    34   29   34 1  
    35   30   31 1  
    36   30   35 1  
    37   31   32 1  
    38   31   36 1  
    39   32   37 1  
    40    1   38 1  
    41    2   39 1  
    42    3   40 1  
    43    4   41 1  
    44    5   42 1  
    45    6   43 1  
    46    6   44 1  
    47    8   45 1  
    48    8   46 1  
    49    8   47 1  
    50    9   48 1  
    51   14   49 1  
    52   16   50 1  
    53   16   51 1  
    54   16   52 1  
    55   17   53 1  
    56   18   54 1  
    57   19   55 1  
    58   20   56 1  
    59   21   57 1  
    60   22   58 1  
    61   22   59 1  
    62   22   60 1  
    63   23   61 1  
    64   24   62 1  
    65   25   63 1  
    66   27   64 1  
    67   28   65 1  
    68   29   66 1  
    69   30   67 1  
    70   31   68 1  
    71   32   69 1  
    72   32   70 1  
    73   33   71 1  
    74   34   72 1  
    75   35   73 1  
    76   37   74 1  
@<TRIPOS>SUBSTRUCTURE
     1 MAG         1

