### 
### Created by X-TOOL on Mon Sep 10 21:12:51 2018
### 

@<TRIPOS>MOLECULE
1uze_ligand
   46    47     1     0     0
SMALL
GAST_HUCK


@<TRIPOS>ATOM
      1 O1         40.1920   34.0940   44.9270 O.2       1 EAL        -0.3903
      2 O2         43.2850   36.5220   48.1860 O.co2     1 EAL        -0.5643
      3 O3         41.9880   37.6940   46.9090 O.co2     1 EAL        -0.5643
      4 O4         38.8040   33.6840   41.7050 O.co2     1 EAL        -0.5644
      5 O5         40.6740   32.5860   42.1270 O.co2     1 EAL        -0.5644
      6 N1         41.7710   34.4720   47.1180 N.4       1 EAL         0.2597
      7 N2         41.7570   34.8740   43.4350 N.am      1 EAL        -0.2371
      8 C1         41.4150   34.3910   44.6760 C.2       1 EAL         0.2317
      9 C2         42.4920   34.1960   45.8130 C.3       1 EAL         0.0660
     10 C3         42.2070   36.6640   47.5300 C.2       1 EAL         0.0847
     11 C4         41.1980   35.5090   47.4850 C.3       1 EAL         0.0340
     12 C5         40.6840   35.0230   42.3630 C.3       1 EAL         0.1158
     13 C6         41.5090   35.5880   41.1790 C.2       1 EAL        -0.0586
     14 C7         42.8210   35.7280   41.5570 C.2       1 EAL        -0.0722
     15 C8         43.0940   35.3080   42.9330 C.3       1 EAL         0.0555
     16 C9         40.0410   33.6030   42.0400 C.2       1 EAL         0.0688
     17 C10        43.0740   32.7750   45.7120 C.3       1 EAL        -0.0038
     18 C14        40.5060   35.7720   48.7790 C.3       1 EAL         0.0122
     19 C15        39.3030   36.6650   49.0290 C.3       1 EAL        -0.0125
     20 C16        38.7470   36.7910   50.4110 C.ar      1 EAL        -0.0427
     21 C17        38.5240   35.6000   51.2570 C.ar      1 EAL        -0.0603
     22 C18        37.9710   35.7450   52.5950 C.ar      1 EAL        -0.0686
     23 C19        37.6300   37.0810   53.1110 C.ar      1 EAL        -0.0687
     24 C20        37.8500   38.2740   52.2740 C.ar      1 EAL        -0.0686
     25 C21        38.4070   38.1300   50.9260 C.ar      1 EAL        -0.0603
     26 H1         42.4649   34.3029   47.8293 H         1 EAL         0.2052
     27 H2         41.0589   33.7603   47.1673 H         1 EAL         0.2052
     28 H3         43.3104   34.9207   45.6906 H         1 EAL         0.1096
     29 H4         40.4506   35.6932   46.6992 H         1 EAL         0.1027
     30 H5         39.8942   35.7247   42.6693 H         1 EAL         0.0851
     31 H6         41.1088   35.8361   40.1970 H         1 EAL         0.0488
     32 H7         43.5909   36.1171   40.8923 H         1 EAL         0.0478
     33 H8         43.8119   34.4749   42.9549 H         1 EAL         0.0651
     34 H9         43.4855   36.1452   43.5295 H         1 EAL         0.0651
     35 H10        43.5784   32.6535   44.7421 H         1 EAL         0.0310
     36 H11        42.2611   32.0389   45.7972 H         1 EAL         0.0310
     37 H12        43.7985   32.6169   46.5244 H         1 EAL         0.0310
     38 H13        41.2907   36.1700   49.4391 H         1 EAL         0.0361
     39 H14        40.1952   34.7791   49.1360 H         1 EAL         0.0361
     40 H15        38.4893   36.2896   48.3911 H         1 EAL         0.0429
     41 H16        39.5851   37.6778   48.7054 H         1 EAL         0.0429
     42 H17        38.7733   34.6149   50.8794 H         1 EAL         0.0557
     43 H18        37.8100   34.8686   53.2124 H         1 EAL         0.0599
     44 H19        37.2167   37.1874   54.1075 H         1 EAL         0.0559
     45 H20        37.6000   39.2575   52.6552 H         1 EAL         0.0599
     46 H21        38.5687   39.0063   50.3088 H         1 EAL         0.0557
@<TRIPOS>BOND
     1    8    1 2  
     2   10    2 ar 
     3   10    3 ar 
     4   16    4 ar 
     5   16    5 ar 
     6    9    6 1  
     7    6   11 1  
     8    7    8 am 
     9   12    7 1  
    10    7   15 1  
    11    8    9 1  
    12    9   17 1  
    13   11   10 1  
    14   11   18 1  
    15   12   13 1  
    16   12   16 1  
    17   13   14 2  
    18   14   15 1  
    19   18   19 1  
    20   19   20 1  
    21   20   21 ar 
    22   20   25 ar 
    23   21   22 ar 
    24   22   23 ar 
    25   23   24 ar 
    26   24   25 ar 
    27    6   26 1  
    28    6   27 1  
    29    9   28 1  
    30   11   29 1  
    31   12   30 1  
    32   13   31 1  
    33   14   32 1  
    34   15   33 1  
    35   15   34 1  
    36   17   35 1  
    37   17   36 1  
    38   17   37 1  
    39   18   38 1  
    40   18   39 1  
    41   19   40 1  
    42   19   41 1  
    43   21   42 1  
    44   22   43 1  
    45   23   44 1  
    46   24   45 1  
    47   25   46 1  
@<TRIPOS>SUBSTRUCTURE
     1 EAL         1

