### 
### Created by X-TOOL on Mon Sep 10 21:12:51 2018
### 

@<TRIPOS>MOLECULE
1v0k_ligand
   38    39     1     0     0
SMALL
GAST_HUCK


@<TRIPOS>ATOM
      1 C1B         6.9510   14.3080   16.2390 C.3       1 XYP         0.1882
      2 C2B         6.6490   12.8540   16.5340 C.3       1 XYP         0.1341
      3 C3B         5.1640   12.5920   16.4250 C.3       1 XYP         0.1137
      4 C4B         4.3650   13.6260   17.2050 C.3       1 XYP         0.1069
      5 C5B         4.8510   15.0410   16.8710 C.3       1 XYP         0.0792
      6 O2B         7.3670   12.0160   15.6490 O.3       1 XYP        -0.3841
      7 O3B         4.8660   11.2850   16.9300 O.3       1 XYP        -0.3864
      8 O4B         2.9790   13.5040   16.9300 O.3       1 XYP        -0.3869
      9 O5B         6.2350   15.1230   17.1020 O.3       1 XYP        -0.3461
     10 C1         10.5050   17.8500   15.1270 C.3       1 XDN        -0.0044
     11 C2         10.4270   17.5610   16.6600 C.3       1 XDN         0.1231
     12 O2         11.6490   17.8820   17.2970 O.3       1 XDN        -0.3838
     13 C3         10.0360   16.0930   16.9450 C.3       1 XDN         0.1171
     14 O3          9.7700   15.9130   18.3270 O.3       1 XDN        -0.3862
     15 C4          8.7650   15.8020   16.1520 C.3       1 XDN         0.1296
     16 O4          8.3330   14.4750   16.4650 O.3       1 XDN        -0.3375
     17 C5          9.0620   15.9670   14.6640 C.3       1 XDN        -0.0040
     18 N5          9.3080   17.3940   14.3990 N.4       1 XDN         0.2308
     19 H1          6.6967   14.5520   15.1970 H         1 XYP         0.0937
     20 H2          6.9683   12.6315   17.5628 H         1 XYP         0.0671
     21 H3          4.8728   12.6438   15.3655 H         1 XYP         0.0647
     22 H4          4.5227   13.4479   18.2790 H         1 XYP         0.0643
     23 H5          4.3283   15.7692   17.5085 H         1 XYP         0.0587
     24 H6          4.6411   15.2618   15.8140 H         1 XYP         0.0587
     25 H7          7.1969   11.1071   15.8672 H         1 XYP         0.2101
     26 H8          3.9372   11.1122   16.8297 H         1 XYP         0.2100
     27 H9          2.4965   14.1306   17.4564 H         1 XYP         0.2100
     28 H10        11.3846   17.3329   14.7160 H         1 XYP         0.0840
     29 H11        10.6147   18.9344   14.9788 H         1 XYP         0.0840
     30 H12         9.6435   18.2064   17.0836 H         1 XYP         0.0674
     31 H13        12.3474   17.3583   16.9220 H         1 XYP         0.2101
     32 H14        10.8460   15.4181   16.6314 H         1 XYP         0.0649
     33 H15        10.5468   16.1304   18.8288 H         1 XYP         0.2100
     34 H16         7.9775   16.5138   16.4404 H         1 XYP         0.0678
     35 H17         8.2017   15.6214   14.0721 H         1 XYP         0.0840
     36 H18         9.9521   15.3796   14.3947 H         1 XYP         0.0840
     37 H19         9.4486   17.5292   13.4101 H         1 XYP         0.2015
     38 H20         8.5102   17.9307   14.7014 H         1 XYP         0.2015
@<TRIPOS>BOND
     1    1    2 1  
     2    1    9 1  
     3   16    1 1  
     4    2    3 1  
     5    2    6 1  
     6    3    4 1  
     7    3    7 1  
     8    5    4 1  
     9    4    8 1  
    10    9    5 1  
    11   11   10 1  
    12   10   18 1  
    13   11   12 1  
    14   13   11 1  
    15   13   14 1  
    16   15   13 1  
    17   15   16 1  
    18   15   17 1  
    19   17   18 1  
    20    1   19 1  
    21    2   20 1  
    22    3   21 1  
    23    4   22 1  
    24    5   23 1  
    25    5   24 1  
    26    6   25 1  
    27    7   26 1  
    28    8   27 1  
    29   10   28 1  
    30   10   29 1  
    31   11   30 1  
    32   12   31 1  
    33   13   32 1  
    34   14   33 1  
    35   15   34 1  
    36   17   35 1  
    37   17   36 1  
    38   18   37 1  
    39   18   38 1  
@<TRIPOS>SUBSTRUCTURE
     1 XYP         1

