### 
### Created by X-TOOL on Mon Sep 10 21:12:51 2018
### 

@<TRIPOS>MOLECULE
1v0l_ligand
   37    38     1     0     0
SMALL
GAST_HUCK


@<TRIPOS>ATOM
      1 N1         10.7080   17.4190   14.5750 N.4       1 XIF         0.2289
      2 C2         10.4450   17.2940   16.0170 C.3       1 XIF        -0.0046
      3 C3          9.9420   15.8970   16.3650 C.3       1 XIF         0.1210
      4 O3          9.6280   15.8440   17.7490 O.3       1 XIF        -0.3839
      5 C4          8.7160   15.5760   15.5600 C.3       1 XIF         0.0974
      6 O4          8.2270   14.2770   15.9650 O.3       1 XIF        -0.3425
      7 C5          9.1070   15.6140   14.0800 C.3       1 XIF         0.0164
      8 C6          9.5470   17.0150   13.7380 C.3       1 XIF        -0.0311
      9 C1B         6.8640   14.0980   15.6960 C.3       1 XYP         0.1879
     10 C2B         6.5170   12.6600   15.9770 C.3       1 XYP         0.1341
     11 C3B         5.0140   12.4380   15.8900 C.3       1 XYP         0.1137
     12 C4B         4.2410   13.5020   16.6610 C.3       1 XYP         0.1069
     13 C5B         4.7600   14.8800   16.3140 C.3       1 XYP         0.0792
     14 O2B         7.2040   11.8450   15.0400 O.3       1 XYP        -0.3841
     15 O3B         4.7110   11.1420   16.3810 O.3       1 XYP        -0.3864
     16 O4B         2.8570   13.3930   16.3600 O.3       1 XYP        -0.3869
     17 O5B         6.1400   14.9380   16.5670 O.3       1 XYP        -0.3461
     18 H1         11.4937   16.8332   14.3393 H         1 XIF         0.2014
     19 H2         10.9325   18.3803   14.3711 H         1 XIF         0.2014
     20 H3          9.6839   18.0327   16.3086 H         1 XIF         0.0840
     21 H4         11.3757   17.4886   16.5700 H         1 XIF         0.0840
     22 H5         10.7274   15.1606   16.1395 H         1 XIF         0.0673
     23 H6         10.4069   16.0384   18.2570 H         1 XIF         0.2101
     24 H7          7.9356   16.3281   15.7477 H         1 XIF         0.0627
     25 H8          8.2421   15.3349   13.4603 H         1 XIF         0.0343
     26 H9          9.9323   14.9105   13.8959 H         1 XIF         0.0343
     27 H10         9.8352   17.0543   12.6772 H         1 XIF         0.0815
     28 H11         8.7131   17.7095   13.9174 H         1 XIF         0.0815
     29 H12         6.6388   14.3473   14.6486 H         1 XIF         0.0937
     30 H13         6.8514   12.4009   16.9924 H         1 XIF         0.0671
     31 H14         4.7133   12.4941   14.8334 H         1 XIF         0.0647
     32 H15         4.3830   13.3344   17.7388 H         1 XIF         0.0643
     33 H16         4.2428   15.6319   16.9281 H         1 XIF         0.0587
     34 H17         4.5736   15.0847   15.2494 H         1 XIF         0.0587
     35 H18         7.0186   10.9310   15.2211 H         1 XIF         0.2101
     36 H19         3.7806   10.9771   16.2832 H         1 XIF         0.2100
     37 H20         2.3731   14.0382   16.8620 H         1 XIF         0.2100
@<TRIPOS>BOND
     1    1    2 1  
     2    1    8 1  
     3    2    3 1  
     4    3    4 1  
     5    3    5 1  
     6    5    6 1  
     7    5    7 1  
     8    6    9 1  
     9    7    8 1  
    10    9   10 1  
    11    9   17 1  
    12   10   11 1  
    13   10   14 1  
    14   11   12 1  
    15   11   15 1  
    16   12   13 1  
    17   12   16 1  
    18   13   17 1  
    19    1   18 1  
    20    1   19 1  
    21    2   20 1  
    22    2   21 1  
    23    3   22 1  
    24    4   23 1  
    25    5   24 1  
    26    7   25 1  
    27    7   26 1  
    28    8   27 1  
    29    8   28 1  
    30    9   29 1  
    31   10   30 1  
    32   11   31 1  
    33   12   32 1  
    34   13   33 1  
    35   13   34 1  
    36   14   35 1  
    37   15   36 1  
    38   16   37 1  
@<TRIPOS>SUBSTRUCTURE
     1 XIF         1

