### 
### Created by X-TOOL on Mon Sep 10 21:12:51 2018
### 

@<TRIPOS>MOLECULE
1v0m_ligand
   38    39     1     0     0
SMALL
GAST_HUCK


@<TRIPOS>ATOM
      1 C1         10.5150   17.8060   15.2180 C.3       1 XDN        -0.0044
      2 C2         10.5110   17.4590   16.7080 C.3       1 XDN         0.1231
      3 O2         11.7630   17.7910   17.2680 O.3       1 XDN        -0.3838
      4 C3         10.1140   15.9960   16.9980 C.3       1 XDN         0.1171
      5 O3          9.8660   15.8360   18.3700 O.3       1 XDN        -0.3862
      6 C4          8.8210   15.7330   16.2490 C.3       1 XDN         0.1296
      7 O4          8.3830   14.4030   16.5540 O.3       1 XDN        -0.3375
      8 C5          9.0590   15.9010   14.7450 C.3       1 XDN        -0.0040
      9 N5          9.2850   17.3470   14.5170 N.4       1 XDN         0.2308
     10 C1B         6.9970   14.2200   16.3310 C.3       1 XYP         0.1882
     11 C2B         6.6920   12.7820   16.5940 C.3       1 XYP         0.1341
     12 C3B         5.1880   12.5430   16.5000 C.3       1 XYP         0.1137
     13 C4B         4.4050   13.5800   17.2910 C.3       1 XYP         0.1069
     14 C5B         4.8970   14.9850   16.9530 C.3       1 XYP         0.0792
     15 O2B         7.3640   11.9670   15.6590 O.3       1 XYP        -0.3841
     16 O3B         4.8780   11.2400   16.9870 O.3       1 XYP        -0.3864
     17 O4B         3.0260   13.4940   16.9780 O.3       1 XYP        -0.3869
     18 O5B         6.2990   15.0520   17.1950 O.3       1 XYP        -0.3461
     19 H1         11.3869   17.3278   14.7478 H         1 XDN         0.0840
     20 H2         10.5938   18.8980   15.1114 H         1 XDN         0.0840
     21 H3          9.7531   18.0943   17.1896 H         1 XDN         0.0674
     22 H4         12.4460   17.2985   16.8282 H         1 XDN         0.2101
     23 H5         10.9059   15.3070   16.6691 H         1 XDN         0.0649
     24 H6         10.6506   16.0530   18.8599 H         1 XDN         0.2100
     25 H7          8.0540   16.4514   16.5739 H         1 XDN         0.0678
     26 H8          8.1791   15.5597   14.1800 H         1 XDN         0.0840
     27 H9          9.9419   15.3240   14.4326 H         1 XDN         0.0840
     28 H10         9.3863   17.5138   13.5281 H         1 XDN         0.2015
     29 H11         8.4932   17.8643   14.8656 H         1 XDN         0.2015
     30 H12         6.7401   14.4708   15.2913 H         1 XDN         0.0937
     31 H13         7.0340   12.5229   17.6068 H         1 XDN         0.0671
     32 H14         4.8890   12.6097   15.4435 H         1 XDN         0.0647
     33 H15         4.5469   13.3935   18.3657 H         1 XDN         0.0643
     34 H16         4.3775   15.7204   17.5848 H         1 XDN         0.0587
     35 H17         4.6940   15.2028   15.8941 H         1 XDN         0.0587
     36 H18         7.1780   11.0541   15.8449 H         1 XDN         0.2101
     37 H19         3.9472   11.0788   16.8867 H         1 XDN         0.2100
     38 H20         2.5460   14.1359   17.4880 H         1 XDN         0.2100
@<TRIPOS>BOND
     1    1    2 1  
     2    1    9 1  
     3    2    3 1  
     4    2    4 1  
     5    4    5 1  
     6    4    6 1  
     7    6    7 1  
     8    6    8 1  
     9    7   10 1  
    10    8    9 1  
    11   10   11 1  
    12   10   18 1  
    13   11   12 1  
    14   11   15 1  
    15   12   13 1  
    16   12   16 1  
    17   13   14 1  
    18   13   17 1  
    19   14   18 1  
    20    1   19 1  
    21    1   20 1  
    22    2   21 1  
    23    3   22 1  
    24    4   23 1  
    25    5   24 1  
    26    6   25 1  
    27    8   26 1  
    28    8   27 1  
    29    9   28 1  
    30    9   29 1  
    31   10   30 1  
    32   11   31 1  
    33   12   32 1  
    34   13   33 1  
    35   14   34 1  
    36   14   35 1  
    37   15   36 1  
    38   16   37 1  
    39   17   38 1  
@<TRIPOS>SUBSTRUCTURE
     1 XDN         1

