### 
### Created by X-TOOL on Mon Sep 10 21:12:51 2018
### 

@<TRIPOS>MOLECULE
1v0n_ligand
   37    38     1     0     0
SMALL
GAST_HUCK


@<TRIPOS>ATOM
      1 N1         10.7430   17.3460   14.5510 N.4       1 XIF         0.2289
      2 C2         10.4620   17.2140   15.9950 C.3       1 XIF        -0.0046
      3 C3          9.9720   15.7830   16.3470 C.3       1 XIF         0.1210
      4 O3          9.6540   15.7560   17.7380 O.3       1 XIF        -0.3839
      5 C4          8.7180   15.4920   15.5390 C.3       1 XIF         0.0974
      6 O4          8.2370   14.2000   15.9360 O.3       1 XIF        -0.3425
      7 C5          9.1080   15.5330   14.0620 C.3       1 XIF         0.0164
      8 C6          9.6060   16.9200   13.6960 C.3       1 XIF        -0.0311
      9 C1B         6.8560   14.0210   15.6740 C.3       1 XYP         0.1879
     10 C2B         6.5170   12.5650   15.9420 C.3       1 XYP         0.1341
     11 C3B         4.9960   12.3430   15.8930 C.3       1 XYP         0.1137
     12 C4B         4.2210   13.4080   16.6760 C.3       1 XYP         0.1069
     13 C5B         4.7210   14.7960   16.3070 C.3       1 XYP         0.0792
     14 O2B         7.2060   11.7550   15.0140 O.3       1 XYP        -0.3841
     15 O3B         4.7140   11.0340   16.3630 O.3       1 XYP        -0.3864
     16 O4B         2.8310   13.2960   16.3440 O.3       1 XYP        -0.3869
     17 O5B         6.1500   14.8750   16.5460 O.3       1 XYP        -0.3461
     18 H1         11.5442   16.7770   14.3265 H         1 XIF         0.2014
     19 H2         10.9504   18.3120   14.3513 H         1 XIF         0.2014
     20 H3          9.6834   17.9384   16.2760 H         1 XIF         0.0840
     21 H4         11.3817   17.4266   16.5598 H         1 XIF         0.0840
     22 H5         10.7520   15.0417   16.1189 H         1 XIF         0.0673
     23 H6         10.4292   15.9716   18.2432 H         1 XIF         0.2101
     24 H7          7.9459   16.2498   15.7381 H         1 XIF         0.0627
     25 H8          8.2304   15.2866   13.4463 H         1 XIF         0.0343
     26 H9          9.9051   14.7984   13.8749 H         1 XIF         0.0343
     27 H10         9.9338   16.9140   12.6460 H         1 XIF         0.0815
     28 H11         8.7811   17.6373   13.8185 H         1 XIF         0.0815
     29 H12         6.6229   14.2737   14.6291 H         1 XIF         0.0937
     30 H13         6.8650   12.3042   16.9524 H         1 XIF         0.0671
     31 H14         4.6755   12.4076   14.8427 H         1 XIF         0.0647
     32 H15         4.3588   13.2452   17.7551 H         1 XIF         0.0643
     33 H16         4.2044   15.5474   16.9222 H         1 XIF         0.0587
     34 H17         4.5160   14.9889   15.2436 H         1 XIF         0.0587
     35 H18         7.0351   10.8404   15.2055 H         1 XIF         0.2101
     36 H19         3.7853   10.8579   16.2681 H         1 XIF         0.2100
     37 H20         2.3378   13.9492   16.8263 H         1 XIF         0.2100
@<TRIPOS>BOND
     1    1    2 1  
     2    1    8 1  
     3    2    3 1  
     4    3    4 1  
     5    3    5 1  
     6    5    6 1  
     7    5    7 1  
     8    6    9 1  
     9    7    8 1  
    10    9   10 1  
    11    9   17 1  
    12   10   11 1  
    13   10   14 1  
    14   11   12 1  
    15   11   15 1  
    16   12   13 1  
    17   12   16 1  
    18   13   17 1  
    19    1   18 1  
    20    1   19 1  
    21    2   20 1  
    22    2   21 1  
    23    3   22 1  
    24    4   23 1  
    25    5   24 1  
    26    7   25 1  
    27    7   26 1  
    28    8   27 1  
    29    8   28 1  
    30    9   29 1  
    31   10   30 1  
    32   11   31 1  
    33   12   32 1  
    34   13   33 1  
    35   13   34 1  
    36   14   35 1  
    37   15   36 1  
    38   16   37 1  
@<TRIPOS>SUBSTRUCTURE
     1 XIF         1

