### 
### Created by X-TOOL on Mon Sep 10 21:12:52 2018
### 

@<TRIPOS>MOLECULE
1v0o_ligand
   33    36     1     0     0
SMALL
GAST_HUCK


@<TRIPOS>ATOM
      1 C1         24.5200    3.0550   37.4810 C.ar      1 INR         0.0819
      2 C2         24.7150    3.9990   36.5040 C.ar      1 INR         0.0595
      3 C6         25.6460    2.5550   38.1180 C.ar      1 INR        -0.0331
      4 N7         23.1810    2.7430   37.6870 N.pl3     1 INR        -0.2545
      5 C3         25.9590    4.4770   36.1080 C.ar      1 INR        -0.0541
      6 C8         23.3610    4.3460   36.0350 C.2       1 INR         0.1921
      7 C4         27.0780    3.9640   36.7600 C.ar      1 INR        -0.0680
      8 C5         26.9210    3.0010   37.7650 C.ar      1 INR        -0.0673
      9 O10        23.0550    5.1830   35.1180 O.2       1 INR        -0.3607
     10 C9         22.4480    3.4940   36.8400 C.2       1 INR         0.1459
     11 C11        21.0570    3.4010   36.8100 C.2       1 INR         0.0843
     12 C12        20.2650    2.4990   37.6880 C.2       1 INR         0.2183
     13 C15        20.0040    4.0580   36.0100 C.ar      1 INR         0.0034
     14 O13        20.7540    1.7050   38.5860 O.2       1 INR        -0.3840
     15 N14        18.9500    2.6010   37.4510 N.am      1 INR        -0.2387
     16 C16        18.8260    3.5160   36.4740 C.ar      1 INR         0.0685
     17 C20        20.0000    5.0530   34.9640 C.ar      1 INR        -0.0513
     18 C19        18.7640    5.4550   34.4190 C.ar      1 INR         0.0324
     19 C18        17.5690    4.8890   34.8970 C.ar      1 INR        -0.0573
     20 S21        18.7130    6.5590   33.2370 S.o2      1 INR        -0.1707
     21 C17        17.5760    3.9310   35.9120 C.ar      1 INR        -0.0429
     22 O24        18.9740    7.9090   33.8110 O.co2     1 INR        -0.4816
     23 O23        17.3720    6.6050   32.6280 O.co2     1 INR        -0.4816
     24 O22        19.7360    6.3050   32.2200 O.co2     1 INR        -0.4816
     25 H1         25.5350    1.8103   38.8979 H         1 INR         0.0554
     26 H2         22.8143    2.0602   38.3654 H         1 INR         0.2208
     27 H3         26.0543    5.2190   35.3235 H         1 INR         0.0638
     28 H4         28.0693    4.3097   36.4899 H         1 INR         0.0531
     29 H5         27.7924    2.6007   38.2704 H         1 INR         0.0619
     30 H6         18.2138    2.1004   37.9064 H         1 INR         0.2245
     31 H7         20.9285    5.4821   34.6052 H         1 INR         0.0561
     32 H8         16.6238    5.2028   34.4689 H         1 INR         0.0564
     33 H9         16.6456    3.5059   36.2709 H         1 INR         0.0493
@<TRIPOS>BOND
     1    1    2 ar 
     2    1    3 ar 
     3    1    4 1  
     4    2    5 ar 
     5    2    6 1  
     6    3    8 ar 
     7    4   10 1  
     8    5    7 ar 
     9    6    9 2  
    10    6   10 1  
    11    7    8 ar 
    12   10   11 2  
    13   11   12 1  
    14   11   13 1  
    15   12   14 2  
    16   12   15 am 
    17   13   16 ar 
    18   13   17 ar 
    19   15   16 1  
    20   16   21 ar 
    21   17   18 ar 
    22   18   19 ar 
    23   18   20 1  
    24   19   21 ar 
    25   20   22 ar 
    26   20   23 ar 
    27   20   24 ar 
    28    3   25 1  
    29    4   26 1  
    30    5   27 1  
    31    7   28 1  
    32    8   29 1  
    33   15   30 1  
    34   17   31 1  
    35   19   32 1  
    36   21   33 1  
@<TRIPOS>SUBSTRUCTURE
     1 INR         1

