### 
### Created by X-TOOL on Mon Sep 10 21:12:51 2018
### 

@<TRIPOS>MOLECULE
1v0p_ligand
   54    56     1     0     0
SMALL
GAST_HUCK


@<TRIPOS>ATOM
      1 N1         25.2760   -1.1690   35.1390 N.ar      1 PVB        -0.2522
      2 C9         22.6470    1.7330   38.7140 C.3       1 PVB         0.0648
      3 N9         23.4030    0.4990   38.3800 N.pl3     1 PVB        -0.2244
      4 C4         23.9850    0.0940   37.2170 C.ar      1 PVB         0.1437
      5 N3         23.9440    0.6800   35.8860 N.ar      1 PVB        -0.2632
      6 C2         24.6310    0.0420   34.8920 C.ar      1 PVB         0.1557
      7 C6         25.3300   -1.7820   36.3630 C.ar      1 PVB         0.1407
      8 C5         24.7030   -1.1680   37.4670 C.ar      1 PVB         0.0959
      9 N7         24.5060   -1.4480   38.7840 N.2       1 PVB        -0.3036
     10 C8         23.7470   -0.4480   39.3040 C.2       1 PVB         0.1051
     11 N6         25.9890   -2.9740   36.5700 N.pl3     1 PVB        -0.2543
     12 C1A        26.8160   -3.5670   35.6610 C.ar      1 PVB         0.0682
     13 C2A        28.1070   -3.9710   36.0580 C.ar      1 PVB        -0.0340
     14 C3A        28.9820   -4.5320   35.1390 C.ar      1 PVB        -0.0565
     15 C4A        28.5780   -4.6840   33.7990 C.ar      1 PVB         0.0123
     16 C5A        27.2240   -4.2230   33.3810 C.ar      1 PVB         0.0456
     17 CL1        26.7410   -4.3360   31.9420 Cl        1 PVB        -0.0698
     18 C6A        26.3940   -3.6880   34.3530 C.ar      1 PVB        -0.0203
     19 CX         29.5100   -5.2780   32.7970 C.2       1 PVB         0.0557
     20 OX1        30.1350   -6.3150   33.0750 O.co2     1 PVB        -0.5637
     21 OX2        29.6670   -4.7350   31.6930 O.co2     1 PVB        -0.5637
     22 N2         24.6340    0.5440   33.6180 N.pl3     1 PVB        -0.2919
     23 C12        25.3470   -0.2440   32.6130 C.3       1 PVB         0.0659
     24 C13        26.2920    0.5610   31.6970 C.3       1 PVB        -0.0214
     25 C16        26.4770    2.0350   32.1370 C.3       1 PVB        -0.0605
     26 C14        26.0990    0.3400   30.2020 C.3       1 PVB        -0.0605
     27 C15        24.5370   -1.3740   31.9510 C.3       1 PVB         0.0675
     28 O1         23.2040   -0.9450   31.8650 O.3       1 PVB        -0.3927
     29 C11        23.4690    2.8820   38.1590 C.3       1 PVB        -0.0349
     30 C10        21.2420    1.8350   38.1350 C.3       1 PVB        -0.0349
     31 H1         22.5726    1.8127   39.8086 H         1 PVB         0.0642
     32 H2         23.4440   -0.4053   40.3491 H         1 PVB         0.1312
     33 H3         25.8478   -3.4500   37.4724 H         1 PVB         0.2183
     34 H4         28.4182   -3.8424   37.0884 H         1 PVB         0.0547
     35 H5         29.9700   -4.8511   35.4506 H         1 PVB         0.0622
     36 H6         25.3974   -3.3593   34.0815 H         1 PVB         0.0551
     37 H7         24.1605    1.4274   33.3806 H         1 PVB         0.1848
     38 H8         26.0596   -0.8114   33.2297 H         1 PVB         0.0583
     39 H9         27.2777    0.1121   31.8892 H         1 PVB         0.0319
     40 H10        27.1600    2.5427   31.4401 H         1 PVB         0.0233
     41 H11        26.9003    2.0644   33.1519 H         1 PVB         0.0233
     42 H12        25.5021    2.5445   32.1314 H         1 PVB         0.0233
     43 H13        25.9782   -0.7351   30.0029 H         1 PVB         0.0233
     44 H14        26.9783    0.7168   29.6591 H         1 PVB         0.0233
     45 H15        25.2012    0.8785   29.8646 H         1 PVB         0.0233
     46 H16        24.5987   -2.2871   32.5613 H         1 PVB         0.0580
     47 H17        24.9311   -1.5783   30.9445 H         1 PVB         0.0580
     48 H18        22.6792   -1.6249   31.4590 H         1 PVB         0.2095
     49 H19        22.9610    3.8337   38.3740 H         1 PVB         0.0259
     50 H20        23.5785    2.7625   37.0710 H         1 PVB         0.0259
     51 H21        24.4632    2.8826   38.6298 H         1 PVB         0.0259
     52 H22        20.7844    2.7850   38.4483 H         1 PVB         0.0259
     53 H23        20.6325    0.9959   38.5017 H         1 PVB         0.0259
     54 H24        21.2943    1.7979   37.0369 H         1 PVB         0.0259
@<TRIPOS>BOND
     1    6    1 ar 
     2    1    7 ar 
     3    3    2 1  
     4    2   29 1  
     5    2   30 1  
     6    4    3 1  
     7    3   10 1  
     8    5    4 ar 
     9    4    8 ar 
    10    5    6 ar 
    11    6   22 1  
    12    7    8 ar 
    13    7   11 1  
    14    8    9 1  
    15    9   10 2  
    16   11   12 1  
    17   12   13 ar 
    18   12   18 ar 
    19   13   14 ar 
    20   14   15 ar 
    21   15   16 ar 
    22   15   19 1  
    23   16   17 1  
    24   16   18 ar 
    25   19   20 ar 
    26   19   21 ar 
    27   22   23 1  
    28   23   24 1  
    29   23   27 1  
    30   24   25 1  
    31   24   26 1  
    32   27   28 1  
    33    2   31 1  
    34   10   32 1  
    35   11   33 1  
    36   13   34 1  
    37   14   35 1  
    38   18   36 1  
    39   22   37 1  
    40   23   38 1  
    41   24   39 1  
    42   25   40 1  
    43   25   41 1  
    44   25   42 1  
    45   26   43 1  
    46   26   44 1  
    47   26   45 1  
    48   27   46 1  
    49   27   47 1  
    50   28   48 1  
    51   29   49 1  
    52   29   50 1  
    53   29   51 1  
    54   30   52 1  
    55   30   53 1  
    56   30   54 1  
@<TRIPOS>SUBSTRUCTURE
     1 PVB         1

