### 
### Created by X-TOOL on Mon Sep 10 21:12:53 2018
### 

@<TRIPOS>MOLECULE
1v1j_ligand
   21    21     1     0     0
SMALL
GAST_HUCK


@<TRIPOS>ATOM
      1 C2         29.3690   51.4460   57.9320 C.3       1 FA3        -0.0317
      2 F1         27.7450   50.3240   61.4390 F         1 FA3        -0.0823
      3 C3         28.5440   50.1920   57.8800 C.3       1 FA3         0.0999
      4 O3         29.2350   49.2520   57.0620 O.3       1 FA3        -0.3852
      5 C4         28.4350   49.6720   59.2920 C.3       1 FA3         0.1920
      6 O4         27.4760   48.6360   59.3540 O.3       1 FA3        -0.3539
      7 C5         28.1230   50.7020   60.2090 C.2       1 FA3         0.2305
      8 C6         28.1960   52.0540   59.9400 C.2       1 FA3        -0.0199
      9 C          29.4380   53.6990   58.8660 C.2       1 FA3         0.0110
     10 O1         30.7350   53.7170   58.5840 O.co2     1 FA3        -0.5703
     11 O30        27.5280   52.9540   57.8730 O.3       1 FA3        -0.4499
     12 O2         28.8810   54.7930   59.2600 O.co2     1 FA3        -0.5703
     13 C1         28.5950   52.5100   58.6870 C.3       1 FA3         0.0642
     14 H1         29.5758   51.7951   56.9096 H         1 FA3         0.0153
     15 H2         30.3183   51.2427   58.4491 H         1 FA3         0.0153
     16 H3         27.5448   50.3956   57.4675 H         1 FA3         0.0664
     17 H4         28.7325   48.4473   57.0126 H         1 FA3         0.2103
     18 H5         29.4116   49.2530   59.5759 H         1 FA3         0.1076
     19 H6         27.4148   48.3156   60.2462 H         1 FA3         0.2177
     20 H7         27.9384   52.7721   60.7171 H         1 FA3         0.0478
     21 H8         27.0795   53.6717   58.3045 H         1 FA3         0.1854
@<TRIPOS>BOND
     1    1    3 1  
     2   13    1 1  
     3    7    2 1  
     4    3    4 1  
     5    3    5 1  
     6    5    6 1  
     7    7    5 1  
     8    8    7 2  
     9   13    8 1  
    10    9   10 ar 
    11    9   12 ar 
    12    9   13 1  
    13   13   11 1  
    14    1   14 1  
    15    1   15 1  
    16    3   16 1  
    17    4   17 1  
    18    5   18 1  
    19    6   19 1  
    20    8   20 1  
    21   11   21 1  
@<TRIPOS>SUBSTRUCTURE
     1 FA3         1

