### 
### Created by X-TOOL on Mon Sep 10 21:12:51 2018
### 

@<TRIPOS>MOLECULE
1v1k_ligand
   57    59     1     0     0
SMALL
GAST_HUCK


@<TRIPOS>ATOM
      1 C1         13.6820   -8.5830   13.3310 C.ar      1 3FP         0.1332
      2 N1         11.9190  -10.3240   14.4390 N.ar      1 3FP        -0.2658
      3 C2         12.6230   -9.1040   12.5640 C.ar      1 3FP         0.0293
      4 C7         14.2580   -5.4090    9.3020 C.ar      1 3FP        -0.0423
      5 C6         13.2990   -5.2970   10.3030 C.ar      1 3FP        -0.0026
      6 C5         13.4090   -6.0450   11.4740 C.ar      1 3FP         0.1919
      7 C4         14.4870   -6.9260   11.6460 C.ar      1 3FP         0.1294
      8 C3         11.7200  -10.0030   13.1650 C.ar      1 3FP         0.1316
      9 C11         9.5630  -11.5030   10.5110 C.ar      1 3FP        -0.0463
     10 C10        10.1720  -10.4300   11.1890 C.ar      1 3FP         0.0529
     11 C9         15.4470   -7.0190   10.6380 C.ar      1 3FP        -0.0109
     12 C8         15.3400   -6.2760    9.4650 C.ar      1 3FP         0.0312
     13 C12         9.1030  -11.3750    9.1970 C.ar      1 3FP        -0.0420
     14 C16         9.2860  -10.5320    6.1020 C.3       1 3FP         0.0988
     15 C14         9.8250   -9.0790    9.2400 C.ar      1 3FP        -0.0420
     16 C13         9.2580  -10.1480    8.5420 C.ar      1 3FP         0.0798
     17 C15        10.2890   -9.2010   10.5380 C.ar      1 3FP        -0.0463
     18 C          12.9250   -9.8250   15.1460 C.ar      1 3FP         0.0586
     19 N          13.7980   -8.9810   14.6210 N.ar      1 3FP        -0.2656
     20 N2         14.6340   -7.6940   12.8110 N.pl3     1 3FP        -0.2510
     21 F1         12.4700   -5.9310   12.4440 F         1 3FP        -0.1603
     22 N3         10.6150  -10.5950   12.5240 N.pl3     1 3FP        -0.2630
     23 O           8.7970   -9.8710    7.2750 O.3       1 3FP        -0.3225
     24 C21        16.4170   -6.4150    8.3870 C.3       1 3FP         0.3676
     25 F2         16.7700   -5.1930    7.7780 F         1 3FP        -0.2261
     26 F3         17.5840   -6.8690    9.0030 F         1 3FP        -0.2261
     27 F4         16.0260   -7.3450    7.3990 F         1 3FP        -0.2261
     28 C17         8.5310   -9.8690    4.9180 C.3       1 3FP         0.1219
     29 C18         7.8630  -10.8470    3.9230 C.3       1 3FP        -0.0032
     30 C19         5.8170  -11.4900    5.0570 C.3       1 3FP        -0.0433
     31 C20         6.6690  -12.7830    3.3390 C.3       1 3FP        -0.0433
     32 N4          7.0890  -11.9730    4.4970 N.4       1 3FP         0.2328
     33 O1          7.5400   -8.9230    5.3700 O.3       1 3FP        -0.3839
     34 H1         12.5039   -8.8175   11.5253 H         1 3FP         0.0574
     35 H2         14.1653   -4.8229    8.3949 H         1 3FP         0.0768
     36 H3         12.4601   -4.6232   10.1716 H         1 3FP         0.0670
     37 H4          9.4478  -12.4527   11.0208 H         1 3FP         0.0511
     38 H5         16.2934   -7.6831   10.7705 H         1 3FP         0.0727
     39 H6          8.6339  -12.2126    8.6936 H         1 3FP         0.0516
     40 H7          9.0657  -11.6088    6.1456 H         1 3FP         0.0637
     41 H8         10.3711  -10.3835    5.9993 H         1 3FP         0.0637
     42 H9          9.9045   -8.1173    8.7461 H         1 3FP         0.0516
     43 H10        10.7376   -8.3529   11.0426 H         1 3FP         0.0511
     44 H11        13.0346  -10.1175   16.1840 H         1 3FP         0.1046
     45 H12        15.5185   -7.5964   13.3297 H         1 3FP         0.2149
     46 H13        10.0531  -11.2342   13.1042 H         1 3FP         0.2124
     47 H14         9.2876   -9.3075    4.3504 H         1 3FP         0.0674
     48 H15         8.6587  -11.2774    3.2972 H         1 3FP         0.0841
     49 H16         7.1774  -10.2613    3.2930 H         1 3FP         0.0841
     50 H17         5.2564  -12.3376    5.4780 H         1 3FP         0.0777
     51 H18         5.2227  -11.0161    4.2619 H         1 3FP         0.0777
     52 H19         6.0209  -10.7553    5.8498 H         1 3FP         0.0777
     53 H20         7.5573  -13.1980    2.8403 H         1 3FP         0.0777
     54 H21         6.1132  -12.1504    2.6312 H         1 3FP         0.0777
     55 H22         6.0232  -13.6050    3.6814 H         1 3FP         0.0777
     56 H23         7.6283  -12.4928    5.1716 H         1 3FP         0.2029
     57 H24         7.9391   -8.3163    5.9825 H         1 3FP         0.2101
@<TRIPOS>BOND
     1    3    1 ar 
     2    1   19 ar 
     3    1   20 1  
     4    8    2 ar 
     5    2   18 ar 
     6    8    3 ar 
     7    5    4 ar 
     8   12    4 ar 
     9    6    5 ar 
    10    7    6 ar 
    11    6   21 1  
    12    7   11 ar 
    13   20    7 1  
    14   22    8 1  
    15    9   10 ar 
    16   13    9 ar 
    17   17   10 ar 
    18   10   22 1  
    19   11   12 ar 
    20   12   24 1  
    21   16   13 ar 
    22   23   14 1  
    23   14   28 1  
    24   16   15 ar 
    25   15   17 ar 
    26   16   23 1  
    27   18   19 ar 
    28   24   25 1  
    29   24   26 1  
    30   24   27 1  
    31   28   29 1  
    32   28   33 1  
    33   29   32 1  
    34   32   30 1  
    35   32   31 1  
    36    3   34 1  
    37    4   35 1  
    38    5   36 1  
    39    9   37 1  
    40   11   38 1  
    41   13   39 1  
    42   14   40 1  
    43   14   41 1  
    44   15   42 1  
    45   17   43 1  
    46   18   44 1  
    47   20   45 1  
    48   22   46 1  
    49   28   47 1  
    50   29   48 1  
    51   29   49 1  
    52   30   50 1  
    53   30   51 1  
    54   30   52 1  
    55   31   53 1  
    56   31   54 1  
    57   31   55 1  
    58   32   56 1  
    59   33   57 1  
@<TRIPOS>SUBSTRUCTURE
     1 3FP         1

