### 
### Created by X-TOOL on Mon Sep 10 21:12:52 2018
### 

@<TRIPOS>MOLECULE
1v2h_ligand
   17    18     1     0     0
SMALL
GAST_HUCK


@<TRIPOS>ATOM
      1 N9        -17.3600   87.9730    0.7640 N.2       1 GUN        -0.1912
      2 C8        -18.3040   88.5950   -0.0880 C.2       1 GUN         0.1680
      3 N7        -17.7240   89.3310   -1.0610 N.pl3     1 GUN        -0.1621
      4 C5        -16.3410   89.1570   -0.7950 C.2       1 GUN         0.3116
      5 C6        -15.2470   89.6920   -1.4920 C.2       1 GUN         0.3074
      6 O6        -15.2720   90.4290   -2.4800 O.2       1 GUN        -0.3390
      7 N1        -14.0330   89.3030   -0.9420 N.am      1 GUN        -0.2419
      8 C2        -13.9210   88.5050    0.1330 C.cat     1 GUN         0.1980
      9 N2        -12.6910   88.2190    0.5450 N.pl3     1 GUN        -0.3338
     10 N3        -14.9370   88.0070    0.7780 N.pl3     1 GUN        -0.2179
     11 C4        -16.1150   88.3580    0.2780 C.2       1 GUN         0.2740
     12 H1        -19.3818   88.4913    0.0284 H         1 GUN         0.1747
     13 H2        -18.1727   89.8802   -1.8080 H         1 GUN         0.2720
     14 H3        -13.1933   89.6361   -1.3709 H         1 GUN         0.1824
     15 H4        -12.5507   87.6114    1.3648 H         1 GUN         0.1770
     16 H5        -11.8775   88.6048    0.0447 H         1 GUN         0.1770
     17 H6        -14.8354   87.3963    1.6012 H         1 GUN         0.2436
@<TRIPOS>BOND
     1    1    2 2  
     2    1   11 1  
     3    2    3 1  
     4    3    4 1  
     5    4    5 1  
     6    4   11 2  
     7    5    6 2  
     8    5    7 am 
     9    7    8 ar 
    10    8    9 ar 
    11    8   10 ar 
    12   10   11 1  
    13    2   12 1  
    14    3   13 1  
    15    7   14 1  
    16    9   15 1  
    17    9   16 1  
    18   10   17 1  
@<TRIPOS>SUBSTRUCTURE
     1 GUN         1

