### 
### Created by X-TOOL on Mon Sep 10 21:12:51 2018
### 

@<TRIPOS>MOLECULE
1v2l_ligand
   18    18     1     0     0
SMALL
GAST_HUCK


@<TRIPOS>ATOM
      1 C1         53.2200   67.2620  -28.8870 C.ar      1 BEN         0.0260
      2 C2         52.6250   66.8840  -30.1740 C.ar      1 BEN        -0.0565
      3 C3         52.3630   67.8910  -31.1900 C.ar      1 BEN        -0.0618
      4 C4         52.6930   69.2850  -30.9340 C.ar      1 BEN        -0.0618
      5 C5         53.2790   69.6720  -29.6700 C.ar      1 BEN        -0.0618
      6 C6         53.5430   68.6670  -28.6480 C.ar      1 BEN        -0.0565
      7 C          53.5010   66.2000  -27.8130 C.cat     1 BEN         0.2356
      8 N1         54.2640   66.5030  -26.7770 N.pl3     1 BEN        -0.2721
      9 N2         52.9870   64.9940  -27.9420 N.pl3     1 BEN        -0.2721
     10 H1         52.3789   65.8464  -30.3689 H         1 BEN         0.0617
     11 H2         51.9221   67.6033  -32.1376 H         1 BEN         0.0618
     12 H3         52.4991   70.0348  -31.6924 H         1 BEN         0.0618
     13 H4         53.5224   70.7115  -29.4822 H         1 BEN         0.0618
     14 H5         53.9826   68.9642  -27.7028 H         1 BEN         0.0617
     15 H6         54.4557   65.7949  -26.0540 H         1 BEN         0.3181
     16 H7         54.6668   67.4472  -26.6927 H         1 BEN         0.3181
     17 H8         52.3941   64.7711  -28.7542 H         1 BEN         0.3181
     18 H9         53.1780   64.2740  -27.2307 H         1 BEN         0.3181
@<TRIPOS>BOND
     1    1    2 ar 
     2    1    6 ar 
     3    1    7 1  
     4    2    3 ar 
     5    3    4 ar 
     6    4    5 ar 
     7    5    6 ar 
     8    7    8 ar 
     9    7    9 ar 
    10    2   10 1  
    11    3   11 1  
    12    4   12 1  
    13    5   13 1  
    14    6   14 1  
    15    8   15 1  
    16    8   16 1  
    17    9   17 1  
    18    9   18 1  
@<TRIPOS>SUBSTRUCTURE
     1 BEN         1

