### 
### Created by X-TOOL on Mon Sep 10 21:12:51 2018
### 

@<TRIPOS>MOLECULE
1v2m_ligand
   18    18     1     0     0
SMALL
GAST_HUCK


@<TRIPOS>ATOM
      1 C1         45.8770   19.4370   52.7480 C.ar      1 BEN         0.0260
      2 C2         45.3820   19.1490   51.4270 C.ar      1 BEN        -0.0565
      3 C3         45.0350   20.2130   50.5380 C.ar      1 BEN        -0.0618
      4 C4         45.1770   21.5720   50.9610 C.ar      1 BEN        -0.0618
      5 C5         45.6660   21.8710   52.2680 C.ar      1 BEN        -0.0618
      6 C6         46.0150   20.8130   53.1610 C.ar      1 BEN        -0.0565
      7 C          46.2480   18.3040   53.6970 C.cat     1 BEN         0.2356
      8 N1         47.1550   18.5050   54.6200 N.pl3     1 BEN        -0.2721
      9 N2         45.6580   17.1450   53.5760 N.pl3     1 BEN        -0.2721
     10 H1         45.2719   18.1198   51.1050 H         1 BEN         0.0617
     11 H2         44.6645   19.9902   49.5439 H         1 BEN         0.0618
     12 H3         44.9122   22.3780   50.2862 H         1 BEN         0.0618
     13 H4         45.7726   22.9027   52.5832 H         1 BEN         0.0618
     14 H5         46.3851   21.0442   54.1533 H         1 BEN         0.0617
     15 H6         47.4109   17.7438   55.2650 H         1 BEN         0.3181
     16 H7         47.6125   19.4243   54.7009 H         1 BEN         0.3181
     17 H8         44.9466   17.0031   52.8448 H         1 BEN         0.3181
     18 H9         45.9041   16.3729   54.2118 H         1 BEN         0.3181
@<TRIPOS>BOND
     1    1    2 ar 
     2    1    6 ar 
     3    1    7 1  
     4    2    3 ar 
     5    3    4 ar 
     6    4    5 ar 
     7    5    6 ar 
     8    7    8 ar 
     9    7    9 ar 
    10    2   10 1  
    11    3   11 1  
    12    4   12 1  
    13    5   13 1  
    14    6   14 1  
    15    8   15 1  
    16    8   16 1  
    17    9   17 1  
    18    9   18 1  
@<TRIPOS>SUBSTRUCTURE
     1 BEN         1

