### 
### Created by X-TOOL on Mon Sep 10 21:12:51 2018
### 

@<TRIPOS>MOLECULE
1v2p_ligand
   55    56     1     0     0
SMALL
GAST_HUCK


@<TRIPOS>ATOM
      1 N12        44.8690   24.1710   52.5180 N.am      1 ANH        -0.2612
      2 C13        46.1270   23.9440   53.2980 C.3       1 ANH         0.1517
      3 C30        46.9490   22.8700   52.5580 C.3       1 ANH         0.0228
      4 C14        47.0480   25.2090   53.5330 C.2       1 ANH         0.2614
      5 O17        47.5050   25.8310   52.5430 O.2       1 ANH        -0.3676
      6 O15        47.3130   25.5760   54.8850 O.3       1 ANH        -0.2783
      7 C16        46.7880   24.8640   56.0630 C.3       1 ANH         0.0658
      8 C21        46.2880   21.5170   52.4030 C.ar      1 ANH        -0.0385
      9 C22        45.4260   21.2770   51.2950 C.ar      1 ANH        -0.0601
     10 C23        44.7810   20.0240   51.1240 C.ar      1 ANH        -0.0686
     11 C24        45.0000   18.9950   52.0710 C.ar      1 ANH        -0.0635
     12 C25        45.8790   19.1940   53.2250 C.ar      1 ANH         0.0192
     13 C26        46.5110   20.4880   53.3570 C.ar      1 ANH        -0.0549
     14 C27        46.0950   18.1850   54.1550 C.cat     1 ANH         0.2340
     15 N28        46.8000   18.3360   55.2620 N.pl3     1 ANH        -0.2722
     16 N29        45.6340   16.9460   54.0410 N.pl3     1 ANH        -0.2722
     17 C11        43.6320   23.8630   52.9600 C.2       1 ANH         0.1971
     18 C10        42.4450   24.3460   52.1360 C.3       1 ANH         0.1157
     19 N9         42.1970   25.8070   52.1270 N.am      1 ANH        -0.2293
     20 O20        43.4350   23.2060   53.9820 O.2       1 ANH        -0.3951
     21 C1         37.1300   24.9640   56.7690 C.3       1 ANH        -0.0311
     22 C2         38.3670   25.3410   56.0110 C.ar      1 ANH        -0.0460
     23 C3         39.6070   24.6230   56.1710 C.ar      1 ANH        -0.0588
     24 C4         40.7710   25.0110   55.4270 C.ar      1 ANH        -0.0419
     25 C5         40.6610   26.1310   54.5250 C.ar      1 ANH         0.1013
     26 C6         39.4330   26.8430   54.3690 C.ar      1 ANH        -0.0419
     27 C7         38.2970   26.4460   55.1100 C.ar      1 ANH        -0.0588
     28 S8         42.0230   26.6880   53.5760 S.o2      1 ANH         0.0672
     29 O18        43.4310   26.5710   54.3470 O.2       1 ANH        -0.1510
     30 O19        41.7000   28.1440   53.0380 O.2       1 ANH        -0.1510
     31 H1         44.9513   24.5782   51.6084 H         1 ANH         0.1886
     32 H2         45.8387   23.5593   54.2874 H         1 ANH         0.0840
     33 H3         47.8880   22.7241   53.1120 H         1 ANH         0.0475
     34 H4         47.1729   23.2522   51.5512 H         1 ANH         0.0475
     35 H5         47.1463   25.3566   56.9789 H         1 ANH         0.0577
     36 H6         47.1374   23.8211   56.0469 H         1 ANH         0.0577
     37 H7         45.6884   24.8827   56.0428 H         1 ANH         0.0577
     38 H8         45.2595   22.0650   50.5695 H         1 ANH         0.0557
     39 H9         44.1268   19.8568   50.2760 H         1 ANH         0.0599
     40 H10        44.5063   18.0390   51.9390 H         1 ANH         0.0559
     41 H11        47.1669   20.6763   54.1992 H         1 ANH         0.0556
     42 H12        46.9198   17.5431   55.9084 H         1 ANH         0.3181
     43 H13        47.2298   19.2466   55.4786 H         1 ANH         0.3181
     44 H14        45.0651   16.6813   53.2242 H         1 ANH         0.3181
     45 H15        45.8450   16.2489   54.7693 H         1 ANH         0.3181
     46 H16        41.5426   23.8563   52.5309 H         1 ANH         0.0717
     47 H17        42.6090   24.0285   51.0957 H         1 ANH         0.0717
     48 H18        42.1303   26.2865   51.2520 H         1 ANH         0.1702
     49 H19        37.3451   24.1006   57.4157 H         1 ANH         0.0391
     50 H20        36.3313   24.7009   56.0599 H         1 ANH         0.0391
     51 H21        36.8058   25.8137   57.3877 H         1 ANH         0.0391
     52 H22        39.6602   23.7855   56.8571 H         1 ANH         0.0557
     53 H23        41.7075   24.4769   55.5398 H         1 ANH         0.0619
     54 H24        39.3726   27.6829   53.6864 H         1 ANH         0.0619
     55 H25        37.3641   26.9855   54.9931 H         1 ANH         0.0557
@<TRIPOS>BOND
     1    1    2 1  
     2   17    1 am 
     3    2    3 1  
     4    2    4 1  
     5    3    8 1  
     6    4    5 2  
     7    4    6 1  
     8    6    7 1  
     9    8    9 ar 
    10    8   13 ar 
    11    9   10 ar 
    12   10   11 ar 
    13   12   11 ar 
    14   13   12 ar 
    15   12   14 1  
    16   14   15 ar 
    17   14   16 ar 
    18   18   17 1  
    19   17   20 2  
    20   19   18 1  
    21   28   19 am 
    22   22   21 1  
    23   23   22 ar 
    24   22   27 ar 
    25   24   23 ar 
    26   25   24 ar 
    27   25   26 ar 
    28   25   28 1  
    29   26   27 ar 
    30   28   29 2  
    31   28   30 2  
    32    1   31 1  
    33    2   32 1  
    34    3   33 1  
    35    3   34 1  
    36    7   35 1  
    37    7   36 1  
    38    7   37 1  
    39    9   38 1  
    40   10   39 1  
    41   11   40 1  
    42   13   41 1  
    43   15   42 1  
    44   15   43 1  
    45   16   44 1  
    46   16   45 1  
    47   18   46 1  
    48   18   47 1  
    49   19   48 1  
    50   21   49 1  
    51   21   50 1  
    52   21   51 1  
    53   23   52 1  
    54   24   53 1  
    55   26   54 1  
    56   27   55 1  
@<TRIPOS>SUBSTRUCTURE
     1 ANH         1

