### 
### Created by X-TOOL on Mon Sep 10 21:12:51 2018
### 

@<TRIPOS>MOLECULE
1v2q_ligand
   55    56     1     0     0
SMALL
GAST_HUCK


@<TRIPOS>ATOM
      1 N12        -2.2800   18.9300   17.9170 N.am      1 ANH        -0.2612
      2 C13        -3.4640   18.2170   18.4920 C.3       1 ANH         0.1517
      3 C30        -2.9710   17.2080   19.5280 C.3       1 ANH         0.0228
      4 C14        -4.6140   19.1340   19.1410 C.2       1 ANH         0.2614
      5 O17        -5.7990   18.9310   18.7760 O.2       1 ANH        -0.3676
      6 O15        -4.2630   20.1560   20.1100 O.3       1 ANH        -0.2783
      7 C16        -2.9090   20.4780   20.6100 C.3       1 ANH         0.0658
      8 C21        -2.1670   16.0220   19.0020 C.ar      1 ANH        -0.0385
      9 C22        -1.0870   15.5360   19.7790 C.ar      1 ANH        -0.0601
     10 C23        -0.3060   14.4310   19.3350 C.ar      1 ANH        -0.0686
     11 C24        -0.6080   13.8010   18.0980 C.ar      1 ANH        -0.0635
     12 C25        -1.7090   14.2500   17.2450 C.ar      1 ANH         0.0192
     13 C26        -2.4810   15.3820   17.7350 C.ar      1 ANH        -0.0549
     14 C27        -1.9920   13.6130   16.0220 C.cat     1 ANH         0.2340
     15 N28        -2.6100   14.1680   15.0120 N.pl3     1 ANH        -0.2722
     16 N29        -1.6720   12.3600   15.7290 N.pl3     1 ANH        -0.2722
     17 C11        -2.3410   19.8660   16.9590 C.2       1 ANH         0.1971
     18 C10        -1.0710   20.6410   16.6560 C.3       1 ANH         0.1157
     19 N9         -0.9820   21.2180   15.2790 N.am      1 ANH        -0.2293
     20 O20        -3.3590   20.1090   16.3220 O.2       1 ANH        -0.3951
     21 C1          2.8230   25.1510   19.2420 C.3       1 ANH        -0.0311
     22 C2          1.9690   24.5760   18.1720 C.ar      1 ANH        -0.0460
     23 C3          2.5140   23.8190   17.0730 C.ar      1 ANH        -0.0588
     24 C4          1.6330   23.2820   16.0740 C.ar      1 ANH        -0.0419
     25 C5          0.2180   23.5290   16.2140 C.ar      1 ANH         0.1013
     26 C6         -0.3070   24.2810   17.2990 C.ar      1 ANH        -0.0419
     27 C7          0.5700   24.7960   18.2670 C.ar      1 ANH        -0.0588
     28 S8         -0.9330   22.9050   15.0710 S.o2      1 ANH         0.0672
     29 O18        -0.5630   23.1630   13.5340 O.2       1 ANH        -0.1510
     30 O19        -2.3840   23.3400   15.4840 O.2       1 ANH        -0.1510
     31 H1         -1.3770   18.6905   18.2737 H         1 ANH         0.1886
     32 H2         -3.9326   17.6617   17.6662 H         1 ANH         0.0840
     33 H3         -3.8530   16.8076   20.0493 H         1 ANH         0.0475
     34 H4         -2.3359   17.7495   20.2446 H         1 ANH         0.0475
     35 H5         -2.9727   21.3015   21.3365 H         1 ANH         0.0577
     36 H6         -2.2695   20.7808   19.7678 H         1 ANH         0.0577
     37 H7         -2.4777   19.5914   21.0977 H         1 ANH         0.0577
     38 H8         -0.8518   16.0116   20.7243 H         1 ANH         0.0557
     39 H9          0.5181   14.0710   19.9403 H         1 ANH         0.0599
     40 H10        -0.0035   12.9609   17.7757 H         1 ANH         0.0559
     41 H11        -3.3081   15.7561   17.1425 H         1 ANH         0.0556
     42 H12        -2.7769   13.6283   14.1508 H         1 ANH         0.3181
     43 H13        -2.9299   15.1449   15.0777 H         1 ANH         0.3181
     44 H14        -1.1777   11.7793   16.4214 H         1 ANH         0.3181
     45 H15        -1.9178   11.9674   14.8090 H         1 ANH         0.3181
     46 H16        -0.2177   19.9607   16.7942 H         1 ANH         0.0717
     47 H17        -0.9997   21.4696   17.3759 H         1 ANH         0.0717
     48 H18        -0.9514   20.6135   14.4830 H         1 ANH         0.1702
     49 H19         3.8763   24.9048   19.0424 H         1 ANH         0.0391
     50 H20         2.5260   24.7303   20.2140 H         1 ANH         0.0391
     51 H21         2.6994   26.2438   19.2623 H         1 ANH         0.0391
     52 H22         3.5832   23.6559   17.0010 H         1 ANH         0.0557
     53 H23         2.0194   22.7081   15.2395 H         1 ANH         0.0619
     54 H24        -1.3739   24.4554   17.3787 H         1 ANH         0.0619
     55 H25         0.1736   25.3689   19.0975 H         1 ANH         0.0557
@<TRIPOS>BOND
     1    1    2 1  
     2   17    1 am 
     3    2    3 1  
     4    2    4 1  
     5    3    8 1  
     6    4    5 2  
     7    4    6 1  
     8    6    7 1  
     9    8    9 ar 
    10    8   13 ar 
    11    9   10 ar 
    12   10   11 ar 
    13   12   11 ar 
    14   13   12 ar 
    15   12   14 1  
    16   14   15 ar 
    17   14   16 ar 
    18   18   17 1  
    19   17   20 2  
    20   19   18 1  
    21   28   19 am 
    22   22   21 1  
    23   23   22 ar 
    24   22   27 ar 
    25   24   23 ar 
    26   25   24 ar 
    27   25   26 ar 
    28   25   28 1  
    29   26   27 ar 
    30   28   29 2  
    31   28   30 2  
    32    1   31 1  
    33    2   32 1  
    34    3   33 1  
    35    3   34 1  
    36    7   35 1  
    37    7   36 1  
    38    7   37 1  
    39    9   38 1  
    40   10   39 1  
    41   11   40 1  
    42   13   41 1  
    43   15   42 1  
    44   15   43 1  
    45   16   44 1  
    46   16   45 1  
    47   18   46 1  
    48   18   47 1  
    49   19   48 1  
    50   21   49 1  
    51   21   50 1  
    52   21   51 1  
    53   23   52 1  
    54   24   53 1  
    55   26   54 1  
    56   27   55 1  
@<TRIPOS>SUBSTRUCTURE
     1 ANH         1

