### 
### Created by X-TOOL on Mon Sep 10 21:12:51 2018
### 

@<TRIPOS>MOLECULE
1v2u_ligand
   18    18     1     0     0
SMALL
GAST_HUCK


@<TRIPOS>ATOM
      1 C1         53.3620   66.9340  -28.8540 C.ar      1 BEN         0.0260
      2 C2         52.7390   66.5590  -30.1320 C.ar      1 BEN        -0.0565
      3 C3         52.4560   67.5680  -31.1460 C.ar      1 BEN        -0.0618
      4 C4         52.7910   68.9600  -30.8960 C.ar      1 BEN        -0.0618
      5 C5         53.4060   69.3470  -29.6430 C.ar      1 BEN        -0.0618
      6 C6         53.6920   68.3420  -28.6250 C.ar      1 BEN        -0.0565
      7 C          53.6660   65.8680  -27.7800 C.cat     1 BEN         0.2356
      8 N1         54.3970   66.1840  -26.7270 N.pl3     1 BEN        -0.2721
      9 N2         53.2010   64.6420  -27.9270 N.pl3     1 BEN        -0.2721
     10 H1         52.4875   65.5219  -30.3223 H         1 BEN         0.0617
     11 H2         51.9965   67.2803  -32.0847 H         1 BEN         0.0618
     12 H3         52.5801   69.7105  -31.6492 H         1 BEN         0.0618
     13 H4         53.6544   70.3864  -29.4612 H         1 BEN         0.0618
     14 H5         54.1531   68.6404  -27.6904 H         1 BEN         0.0617
     15 H6         54.6007   65.4736  -26.0095 H         1 BEN         0.3181
     16 H7         54.7636   67.1409  -26.6230 H         1 BEN         0.3181
     17 H8         52.6314   64.4026  -28.7511 H         1 BEN         0.3181
     18 H9         53.4077   63.9243  -27.2177 H         1 BEN         0.3181
@<TRIPOS>BOND
     1    1    2 ar 
     2    1    6 ar 
     3    1    7 1  
     4    2    3 ar 
     5    3    4 ar 
     6    4    5 ar 
     7    5    6 ar 
     8    7    8 ar 
     9    7    9 ar 
    10    2   10 1  
    11    3   11 1  
    12    4   12 1  
    13    5   13 1  
    14    6   14 1  
    15    8   15 1  
    16    8   16 1  
    17    9   17 1  
    18    9   18 1  
@<TRIPOS>SUBSTRUCTURE
     1 BEN         1

