### 
### Created by X-TOOL on Mon Sep 10 21:12:52 2018
### 

@<TRIPOS>MOLECULE
1v2v_ligand
   18    18     1     0     0
SMALL
GAST_HUCK


@<TRIPOS>ATOM
      1 C1         -3.1900    8.9750   19.6480 C.ar      1 BEN         0.0260
      2 C2         -1.8280    8.7350   19.2290 C.ar      1 BEN        -0.0565
      3 C3         -1.2400    7.4330   19.3660 C.ar      1 BEN        -0.0618
      4 C4         -2.0070    6.3540   19.9250 C.ar      1 BEN        -0.0618
      5 C5         -3.3530    6.5790   20.3430 C.ar      1 BEN        -0.0618
      6 C6         -3.9450    7.8830   20.2070 C.ar      1 BEN        -0.0565
      7 C          -3.8220   10.3670   19.4980 C.cat     1 BEN         0.2356
      8 N1         -5.1220   10.5100   19.6390 N.pl3     1 BEN        -0.2721
      9 N2         -3.0550   11.4030   19.2200 N.pl3     1 BEN        -0.2721
     10 H1         -1.2451    9.5458   18.8073 H         1 BEN         0.0617
     11 H2         -0.2177    7.2636   19.0479 H         1 BEN         0.0618
     12 H3         -1.5638    5.3702   20.0291 H         1 BEN         0.0618
     13 H4         -3.9311    5.7646   20.7644 H         1 BEN         0.0618
     14 H5         -4.9677    8.0452   20.5278 H         1 BEN         0.0617
     15 H6         -5.5515   11.4409   19.5396 H         1 BEN         0.3181
     16 H7         -5.7104    9.6911   19.8488 H         1 BEN         0.3181
     17 H8         -2.0384   11.2770   19.1122 H         1 BEN         0.3181
     18 H9         -3.4725   12.3382   19.1106 H         1 BEN         0.3181
@<TRIPOS>BOND
     1    1    2 ar 
     2    1    6 ar 
     3    1    7 1  
     4    2    3 ar 
     5    3    4 ar 
     6    4    5 ar 
     7    5    6 ar 
     8    7    8 ar 
     9    7    9 ar 
    10    2   10 1  
    11    3   11 1  
    12    4   12 1  
    13    5   13 1  
    14    6   14 1  
    15    8   15 1  
    16    8   16 1  
    17    9   17 1  
    18    9   18 1  
@<TRIPOS>SUBSTRUCTURE
     1 BEN         1

