### 
### Created by X-TOOL on Mon Sep 10 21:12:51 2018
### 

@<TRIPOS>MOLECULE
1v3x_ligand
   60    64     1     0     0
SMALL
GAST_HUCK


@<TRIPOS>ATOM
      1 CZ7         9.7770    0.3270   16.8850 C.3       1 D76        -0.0415
      2 NZ2         8.8880    1.4080   17.3350 N.4       1 D76         0.2469
      3 CZ3         8.1500    1.0110   18.5780 C.3       1 D76         0.0124
      4 CZ4         9.5380    2.7670   17.3910 C.3       1 D76        -0.0248
      5 CZ5         8.5460    3.9030   17.7650 C.3       1 D76         0.0177
      6 CZ6         7.5950    3.5130   18.8950 C.2       1 D76         0.0193
      7 CZ2         7.4390    2.1940   19.2350 C.2       1 D76         0.0791
      8 NZ1         6.8460    4.3850   19.6390 N.2       1 D76        -0.2998
      9 CZ1         6.1340    3.6760   20.5460 C.2       1 D76         0.1752
     10 SZ1         6.3410    1.9780   20.5220 S.3       1 D76         0.0090
     11 CC1         5.1500    4.2030   21.5870 C.2       1 D76         0.2421
     12 OC1         4.6270    3.3610   22.3410 O.2       1 D76        -0.3781
     13 NP2         4.8500    5.5250   21.6730 N.am      1 D76        -0.2449
     14 CP3         4.0740    6.0250   22.8560 C.3       1 D76         0.0533
     15 CP4         5.0210    6.8520   23.7360 C.3       1 D76         0.0503
     16 CP2         5.5400    6.5710   20.8060 C.3       1 D76         0.1499
     17 CC2         4.5900    7.5120   19.9910 C.2       1 D76         0.2010
     18 OC2         4.9300    8.6030   19.5210 O.2       1 D76        -0.3947
     19 NC2         3.3390    7.1600   19.7830 N.am      1 D76        -0.2989
     20 CP1         6.4650    7.4040   21.7340 C.3       1 D76         0.0700
     21 NP1         5.6690    7.8790   22.8930 N.am      1 D76        -0.2277
     22 S1          6.1310    9.3630   23.5960 S.o2      1 D76         0.0709
     23 O1          5.3340    9.6380   24.9390 O.2       1 D76        -0.1501
     24 O2          6.0510   10.4380   22.4280 O.2       1 D76        -0.1501
     25 CN1         7.8130    9.0440   24.0090 C.ar      1 D76         0.1090
     26 CN2         8.8150    9.4950   23.1520 C.ar      1 D76        -0.0345
     27 CN3        10.1500    9.2170   23.4840 C.ar      1 D76        -0.0521
     28 CN4        10.4690    8.4910   24.6490 C.ar      1 D76        -0.0173
     29 CN5        11.7970    8.2070   24.9810 C.ar      1 D76        -0.0401
     30 CN9         9.4070    7.9940   25.5200 C.ar      1 D76        -0.0160
     31 C10         8.0820    8.2960   25.1740 C.ar      1 D76        -0.0273
     32 CN8         9.7420    7.2870   26.6790 C.ar      1 D76        -0.0536
     33 CN7        11.0830    7.0300   26.9910 C.ar      1 D76        -0.0473
     34 CN6        12.1070    7.4830   26.1370 C.ar      1 D76         0.0411
     35 CL1        13.8160    7.1700   26.4730 Cl        1 D76        -0.0704
     36 H1          9.2228   -0.6231   16.8746 H         1 D76         0.0778
     37 H2         10.6319    0.2452   17.5723 H         1 D76         0.0778
     38 H3         10.1414    0.5499   15.8714 H         1 D76         0.0778
     39 H4          8.1824    1.4911   16.6200 H         1 D76         0.2047
     40 H5          8.8682    0.5875   19.2955 H         1 D76         0.0990
     41 H6          7.4007    0.2494   18.3162 H         1 D76         0.0990
     42 H7          9.9690    2.9898   16.4038 H         1 D76         0.0831
     43 H8         10.3397    2.7407   18.1437 H         1 D76         0.0831
     44 H9          7.9497    4.1553   16.8757 H         1 D76         0.0421
     45 H10         9.1240    4.7839   18.0810 H         1 D76         0.0421
     46 H11         3.6808    5.1733   23.4304 H         1 D76         0.0539
     47 H12         3.2387    6.6540   22.5145 H         1 D76         0.0539
     48 H13         5.7867    6.1958   24.1755 H         1 D76         0.0498
     49 H14         4.4497    7.3388   24.5402 H         1 D76         0.0498
     50 H15         6.1652    6.0364   20.0758 H         1 D76         0.0818
     51 H16         2.7308    7.7595   19.2628 H         1 D76         0.1815
     52 H17         2.9967    6.2930   20.1452 H         1 D76         0.1815
     53 H18         6.8653    8.2665   21.1809 H         1 D76         0.0526
     54 H19         7.2968    6.7771   22.0877 H         1 D76         0.0526
     55 H20         8.5695   10.0466   22.2517 H         1 D76         0.0637
     56 H21        10.9461    9.5652   22.8359 H         1 D76         0.0624
     57 H22        12.5961    8.5520   24.3348 H         1 D76         0.0630
     58 H23         7.2660    7.9551   25.8009 H         1 D76         0.0643
     59 H24         8.9585    6.9354   27.3405 H         1 D76         0.0623
     60 H25        11.3332    6.4812   27.8917 H         1 D76         0.0623
@<TRIPOS>BOND
     1    1    2 1  
     2    2    3 1  
     3    2    4 1  
     4    3    7 1  
     5    4    5 1  
     6    5    6 1  
     7    6    7 2  
     8    6    8 1  
     9    7   10 1  
    10    8    9 2  
    11    9   10 1  
    12    9   11 1  
    13   11   12 2  
    14   11   13 am 
    15   13   14 1  
    16   13   16 1  
    17   14   15 1  
    18   15   21 1  
    19   16   17 1  
    20   16   20 1  
    21   17   18 2  
    22   17   19 am 
    23   20   21 1  
    24   21   22 am 
    25   22   23 2  
    26   22   24 2  
    27   22   25 1  
    28   25   26 ar 
    29   25   31 ar 
    30   26   27 ar 
    31   27   28 ar 
    32   28   29 ar 
    33   28   30 ar 
    34   29   34 ar 
    35   30   31 ar 
    36   30   32 ar 
    37   32   33 ar 
    38   33   34 ar 
    39   34   35 1  
    40    1   36 1  
    41    1   37 1  
    42    1   38 1  
    43    2   39 1  
    44    3   40 1  
    45    3   41 1  
    46    4   42 1  
    47    4   43 1  
    48    5   44 1  
    49    5   45 1  
    50   14   46 1  
    51   14   47 1  
    52   15   48 1  
    53   15   49 1  
    54   16   50 1  
    55   19   51 1  
    56   19   52 1  
    57   20   53 1  
    58   20   54 1  
    59   26   55 1  
    60   27   56 1  
    61   29   57 1  
    62   31   58 1  
    63   32   59 1  
    64   33   60 1  
@<TRIPOS>SUBSTRUCTURE
     1 D76         1

