### 
### Created by X-TOOL on Mon Sep 10 21:12:51 2018
### 

@<TRIPOS>MOLECULE
1v41_ligand
   16    17     1     0     0
SMALL
GAST_HUCK


@<TRIPOS>ATOM
      1 C4         53.2130   47.2580   27.1640 C.2       1 AZG         0.3148
      2 N3         54.3140   46.6660   27.6860 N.pl3     1 AZG        -0.2068
      3 C2         55.4170   46.9960   27.0110 C.cat     1 AZG         0.2040
      4 N2         56.5870   46.5030   27.3780 N.pl3     1 AZG        -0.3322
      5 N1         55.4500   47.8230   25.9230 N.am      1 AZG        -0.2394
      6 C6         54.3400   48.4560   25.3500 C.2       1 AZG         0.3157
      7 O6         54.4920   49.1930   24.3490 O.2       1 AZG        -0.3347
      8 C5         53.1260   48.1130   26.0580 C.2       1 AZG         0.3407
      9 N7         51.7870   48.5190   25.8340 N.pl3     1 AZG        -0.0802
     10 N8         51.0800   47.9060   26.7860 N.2       1 AZG         0.0057
     11 N9         51.8950   47.1160   27.6310 N.2       1 AZG        -0.0760
     12 H1         54.3014   46.0387   28.5029 H         1 AZG         0.2511
     13 H2         57.4389   46.7570   26.8578 H         1 AZG         0.1780
     14 H3         56.6469   45.8648   28.1842 H         1 AZG         0.1780
     15 H4         56.3411   47.9899   25.5011 H         1 AZG         0.1828
     16 H5         51.4363   49.1488   25.0983 H         1 AZG         0.2984
@<TRIPOS>BOND
     1    1    2 1  
     2    1    8 2  
     3    1   11 1  
     4    2    3 ar 
     5    3    4 ar 
     6    3    5 ar 
     7    5    6 am 
     8    6    7 2  
     9    6    8 1  
    10    8    9 1  
    11    9   10 1  
    12   10   11 2  
    13    2   12 1  
    14    4   13 1  
    15    4   14 1  
    16    5   15 1  
    17    9   16 1  
@<TRIPOS>SUBSTRUCTURE
     1 AZG         1

