### 
### Created by X-TOOL on Mon Sep 10 21:12:52 2018
### 

@<TRIPOS>MOLECULE
1v79_ligand
   39    40     1     0     0
SMALL
GAST_HUCK


@<TRIPOS>ATOM
      1 C1         62.0880   65.4480   46.3820 C.2       1 FR7         0.0642
      2 N2         61.0600   65.2680   45.3450 N.pl3     1 FR7        -0.2365
      3 C3         61.6880   65.5840   44.2340 C.2       1 FR7         0.1035
      4 N4         62.9900   65.8200   44.3710 N.2       1 FR7        -0.3095
      5 C5         63.2640   65.7220   45.7940 C.2       1 FR7         0.0902
      6 C8         64.5920   65.8730   46.4960 C.2       1 FR7         0.1892
      7 O9         64.4650   66.0780   47.6370 O.2       1 FR7        -0.3981
      8 N10        65.7620   65.8040   45.9000 N.am      1 FR7        -0.3040
      9 C13        59.6230   65.2920   45.6040 C.3       1 FR7         0.0994
     10 C14        59.1240   63.8220   45.9310 C.3       1 FR7         0.0840
     11 O15        59.3510   62.6680   45.0710 O.3       1 FR7        -0.3889
     12 C18        59.2300   66.3100   46.7330 C.3       1 FR7        -0.0089
     13 C2         59.8110   67.7760   46.6780 C.3       1 FR7        -0.0156
     14 C22        59.3510   68.6040   47.8340 C.ar      1 FR7        -0.0284
     15 C25        58.1360   69.2790   47.7600 C.ar      1 FR7        -0.0596
     16 C26        57.5320   69.8640   48.8940 C.ar      1 FR7        -0.0679
     17 C27        58.1750   69.8190   50.1350 C.ar      1 FR7        -0.0543
     18 C28        59.4470   69.2760   50.1570 C.ar      1 FR7         0.0477
     19 C29        60.0210   68.6790   49.0320 C.ar      1 FR7         0.0550
     20 CL1        60.3630   69.4420   51.6430 Cl        1 FR7        -0.0719
     21 CL2        61.6070   68.0660   49.1230 Cl        1 FR7        -0.0766
     22 C9         59.6760   63.2060   47.2370 C.3       1 FR7        -0.0359
     23 H1         61.9218   65.3713   47.4555 H         1 FR7         0.0990
     24 H2         61.1800   65.6478   43.2729 H         1 FR7         0.1238
     25 H3         66.6015   65.9142   46.4321 H         1 FR7         0.1799
     26 H4         65.8124   65.6414   44.9146 H         1 FR7         0.1799
     27 H5         59.1222   65.6205   44.6814 H         1 FR7         0.0694
     28 H6         58.0343   63.9363   46.0285 H         1 FR7         0.0623
     29 H7         60.2852   62.5344   44.9623 H         1 FR7         0.2099
     30 H8         59.5523   65.8714   47.6889 H         1 FR7         0.0319
     31 H9         58.1336   66.3973   46.7208 H         1 FR7         0.0319
     32 H10        59.4800   68.2545   45.7445 H         1 FR7         0.0429
     33 H11        60.9096   67.7235   46.6937 H         1 FR7         0.0429
     34 H12        57.6375   69.3580   46.8007 H         1 FR7         0.0558
     35 H13        56.5671   70.3494   48.8025 H         1 FR7         0.0601
     36 H14        57.7000   70.1913   51.0354 H         1 FR7         0.0565
     37 H15        59.2685   62.1923   47.3651 H         1 FR7         0.0255
     38 H16        59.3787   63.8314   48.0917 H         1 FR7         0.0255
     39 H17        60.7735   63.1559   47.1835 H         1 FR7         0.0255
@<TRIPOS>BOND
     1    1    2 1  
     2    1    5 2  
     3    2    3 1  
     4    2    9 1  
     5    3    4 2  
     6    4    5 1  
     7    5    6 1  
     8    6    7 2  
     9    6    8 am 
    10    9   10 1  
    11    9   12 1  
    12   10   11 1  
    13   10   22 1  
    14   12   13 1  
    15   13   14 1  
    16   14   15 ar 
    17   14   19 ar 
    18   15   16 ar 
    19   16   17 ar 
    20   17   18 ar 
    21   18   19 ar 
    22   18   20 1  
    23   19   21 1  
    24    1   23 1  
    25    3   24 1  
    26    8   25 1  
    27    8   26 1  
    28    9   27 1  
    29   10   28 1  
    30   11   29 1  
    31   12   30 1  
    32   12   31 1  
    33   13   32 1  
    34   13   33 1  
    35   15   34 1  
    36   16   35 1  
    37   17   36 1  
    38   22   37 1  
    39   22   38 1  
    40   22   39 1  
@<TRIPOS>SUBSTRUCTURE
     1 FR7         1

