### 
### Created by X-TOOL on Mon Sep 10 21:12:52 2018
### 

@<TRIPOS>MOLECULE
1v7a_ligand
   46    48     1     0     0
SMALL
GAST_HUCK


@<TRIPOS>ATOM
      1 C1         50.7510   54.0540   21.0480 C.2       1 FRC         0.0642
      2 N2         50.8140   55.0020   22.1580 N.pl3     1 FRC        -0.2366
      3 C3         50.6630   54.3300   23.3010 C.2       1 FRC         0.1035
      4 N4         50.6320   53.0020   23.0840 N.2       1 FRC        -0.3095
      5 C5         50.5470   52.8540   21.6130 C.2       1 FRC         0.0902
      6 C8         50.2530   51.5860   20.8930 C.2       1 FRC         0.1892
      7 O9         50.1320   51.5300   19.6800 O.2       1 FRC        -0.3981
      8 N10        50.1500   50.4890   21.6260 N.am      1 FRC        -0.3040
      9 C13        50.9040   56.4390   22.0460 C.3       1 FRC         0.1001
     10 C14        52.3720   56.9050   21.8960 C.3       1 FRC         0.0839
     11 O15        53.2270   56.6770   23.0760 O.3       1 FRC        -0.3889
     12 C18        49.9540   56.9960   20.9920 C.3       1 FRC         0.0092
     13 C2         48.5270   57.0650   21.5700 C.3       1 FRC         0.0737
     14 C9         52.9090   56.4890   20.4960 C.3       1 FRC        -0.0359
     15 O1         47.6000   57.5200   20.6120 O.3       1 FRC        -0.3172
     16 C11        46.8830   53.2500   15.8850 C.ar      1 FRC        -0.0648
     17 C17        46.5800   54.6160   15.9670 C.ar      1 FRC        -0.0585
     18 C12        46.9250   55.3240   17.1240 C.ar      1 FRC        -0.0247
     19 C4         47.4710   54.6410   18.2340 C.ar      1 FRC        -0.0287
     20 C15        47.7820   53.2780   18.1290 C.ar      1 FRC        -0.0600
     21 C6         47.4660   52.5760   16.9620 C.ar      1 FRC        -0.0653
     22 C7         46.5850   56.6800   17.2070 C.ar      1 FRC        -0.0562
     23 C16        46.8560   57.3520   18.4000 C.ar      1 FRC        -0.0274
     24 C19        47.4160   56.7040   19.5080 C.ar      1 FRC         0.0922
     25 C10        47.7540   55.3330   19.4230 C.ar      1 FRC        -0.0292
     26 H1         50.8489   54.2747   19.9861 H         1 FRC         0.0990
     27 H2         50.5762   54.7955   24.2817 H         1 FRC         0.1238
     28 H3         49.9533   49.6117   21.1882 H         1 FRC         0.1799
     29 H4         50.2688   50.5373   22.6177 H         1 FRC         0.1799
     30 H5         50.5556   56.8463   23.0066 H         1 FRC         0.0693
     31 H6         52.3124   58.0021   21.8432 H         1 FRC         0.0623
     32 H7         52.8686   57.1456   23.8207 H         1 FRC         0.2099
     33 H8         49.9605   56.3397   20.1093 H         1 FRC         0.0323
     34 H9         50.2806   58.0052   20.7009 H         1 FRC         0.0323
     35 H10        48.5221   57.7547   22.4269 H         1 FRC         0.0615
     36 H11        48.2291   56.0608   21.9058 H         1 FRC         0.0615
     37 H12        53.9525   56.8206   20.3902 H         1 FRC         0.0255
     38 H13        52.2943   56.9576   19.7134 H         1 FRC         0.0255
     39 H14        52.8600   55.3948   20.3948 H         1 FRC         0.0255
     40 H15        46.6619   52.7080   14.9726 H         1 FRC         0.0586
     41 H16        46.0843   55.1182   15.1441 H         1 FRC         0.0616
     42 H17        48.2677   52.7682   18.9531 H         1 FRC         0.0590
     43 H18        47.6721   51.5140   16.8926 H         1 FRC         0.0607
     44 H19        46.1251   57.1924   16.3698 H         1 FRC         0.0618
     45 H20        46.6257   58.4089   18.4711 H         1 FRC         0.0590
     46 H21        48.2223   54.8264   20.2592 H         1 FRC         0.0497
@<TRIPOS>BOND
     1    2    1 1  
     2    1    5 2  
     3    2    3 1  
     4    9    2 1  
     5    3    4 2  
     6    4    5 1  
     7    5    6 1  
     8    6    7 2  
     9    6    8 am 
    10    9   10 1  
    11   12    9 1  
    12   10   11 1  
    13   10   14 1  
    14   13   12 1  
    15   15   13 1  
    16   24   15 1  
    17   17   16 ar 
    18   16   21 ar 
    19   18   17 ar 
    20   18   19 ar 
    21   22   18 ar 
    22   19   20 ar 
    23   19   25 ar 
    24   20   21 ar 
    25   23   22 ar 
    26   23   24 ar 
    27   24   25 ar 
    28    1   26 1  
    29    3   27 1  
    30    8   28 1  
    31    8   29 1  
    32    9   30 1  
    33   10   31 1  
    34   11   32 1  
    35   12   33 1  
    36   12   34 1  
    37   13   35 1  
    38   13   36 1  
    39   14   37 1  
    40   14   38 1  
    41   14   39 1  
    42   16   40 1  
    43   17   41 1  
    44   20   42 1  
    45   21   43 1  
    46   22   44 1  
    47   23   45 1  
    48   25   46 1  
@<TRIPOS>SUBSTRUCTURE
     1 FRC         1

