### 
### Created by X-TOOL on Mon Sep 10 21:12:51 2018
### 

@<TRIPOS>MOLECULE
1vcj_ligand
   52    53     1     0     0
SMALL
GAST_HUCK


@<TRIPOS>ATOM
      1 C6         33.9140   -9.4170   64.8000 C.ar      1 IBA        -0.0477
      2 C5         32.6210   -9.0360   64.3580 C.ar      1 IBA         0.0929
      3 C4         31.5040   -9.8770   64.6320 C.ar      1 IBA         0.0652
      4 C3         31.7220  -11.0950   65.3350 C.ar      1 IBA        -0.0433
      5 C2         33.0130  -11.4650   65.7570 C.ar      1 IBA        -0.0175
      6 C7         34.1040  -10.6170   65.4910 C.ar      1 IBA        -0.0745
      7 C1         33.2040  -12.7410   66.4500 C.2       1 IBA         0.0497
      8 O21        32.3210  -13.7140   66.1440 O.co2     1 IBA        -0.5649
      9 O20        34.1010  -12.9090   67.1950 O.co2     1 IBA        -0.5649
     10 N4         30.2750   -9.4810   64.1950 N.pl3     1 IBA        -0.3248
     11 C8         29.0320  -10.2580   64.2940 C.3       1 IBA         0.0322
     12 C11        28.7160  -10.8760   62.9100 C.3       1 IBA        -0.0339
     13 C9         27.9150   -9.3170   64.8210 C.3       1 IBA        -0.0339
     14 C12        28.2790  -12.3520   62.9670 C.3       1 IBA        -0.0633
     15 C10        27.5770   -8.1140   63.9220 C.3       1 IBA        -0.0633
     16 N5         32.4790   -7.8500   63.6470 N.am      1 IBA        -0.2086
     17 C13        33.0240   -7.6000   62.2720 C.3       1 IBA         0.1395
     18 C14        32.0750   -6.4670   61.7890 C.3       1 IBA         0.0026
     19 C15        31.5810   -5.7250   63.0360 C.3       1 IBA         0.0460
     20 C16        31.7640   -6.7950   64.0770 C.2       1 IBA         0.2049
     21 O13        31.2610   -6.6900   65.2020 O.2       1 IBA        -0.3857
     22 C18        34.5440   -7.1480   62.2720 C.3       1 IBA         0.0801
     23 O18        34.8240   -6.2980   63.3880 O.3       1 IBA        -0.3918
     24 C17        32.8670   -8.8250   61.3170 C.3       1 IBA        -0.0014
     25 N17        31.5340   -9.3880   61.1180 N.4       1 IBA         0.2208
     26 H1         34.7619   -8.7719   64.6001 H         1 IBA         0.0469
     27 H2         30.8825  -11.7467   65.5484 H         1 IBA         0.0496
     28 H3         35.0972  -10.8959   65.8238 H         1 IBA         0.0503
     29 H4         30.2120   -8.5518   63.7550 H         1 IBA         0.1717
     30 H5         29.1684  -11.0765   65.0160 H         1 IBA         0.0542
     31 H6         29.6193  -10.8068   62.2860 H         1 IBA         0.0284
     32 H7         27.9056  -10.2931   62.4480 H         1 IBA         0.0284
     33 H8         28.2339   -8.9287   65.7995 H         1 IBA         0.0284
     34 H9         26.9997   -9.9146   64.9442 H         1 IBA         0.0284
     35 H10        28.0744  -12.7134   61.9484 H         1 IBA         0.0230
     36 H11        27.3684  -12.4415   63.5776 H         1 IBA         0.0230
     37 H12        29.0821  -12.9551   63.4156 H         1 IBA         0.0230
     38 H13        26.7781   -7.5198   64.3897 H         1 IBA         0.0230
     39 H14        27.2386   -8.4742   62.9393 H         1 IBA         0.0230
     40 H15        28.4727   -7.4883   63.7946 H         1 IBA         0.0230
     41 H16        31.2218   -6.8971   61.2441 H         1 IBA         0.0322
     42 H17        32.6197   -5.7748   61.1301 H         1 IBA         0.0322
     43 H18        30.5266   -5.4264   62.9407 H         1 IBA         0.0508
     44 H19        32.1952   -4.8383   63.2518 H         1 IBA         0.0508
     45 H20        34.7574   -6.6021   61.3412 H         1 IBA         0.0590
     46 H21        35.1850   -8.0401   62.3291 H         1 IBA         0.0590
     47 H22        34.2748   -5.5242   63.3410 H         1 IBA         0.2095
     48 H23        33.5032   -9.6297   61.7140 H         1 IBA         0.0845
     49 H24        33.2397   -8.5164   60.3292 H         1 IBA         0.0845
     50 H25        31.5900  -10.1671   60.4809 H         1 IBA         0.1995
     51 H26        30.9253   -8.6826   60.7333 H         1 IBA         0.1995
     52 H27        31.1668   -9.7029   62.0023 H         1 IBA         0.1995
@<TRIPOS>BOND
     1    1    2 ar 
     2    1    6 ar 
     3    2    3 ar 
     4    2   16 1  
     5    3    4 ar 
     6    3   10 1  
     7    4    5 ar 
     8    5    6 ar 
     9    5    7 1  
    10    7    8 ar 
    11    7    9 ar 
    12   10   11 1  
    13   11   12 1  
    14   11   13 1  
    15   12   14 1  
    16   13   15 1  
    17   16   17 1  
    18   16   20 am 
    19   17   18 1  
    20   17   22 1  
    21   17   24 1  
    22   18   19 1  
    23   19   20 1  
    24   20   21 2  
    25   22   23 1  
    26   24   25 1  
    27    1   26 1  
    28    4   27 1  
    29    6   28 1  
    30   10   29 1  
    31   11   30 1  
    32   12   31 1  
    33   12   32 1  
    34   13   33 1  
    35   13   34 1  
    36   14   35 1  
    37   14   36 1  
    38   14   37 1  
    39   15   38 1  
    40   15   39 1  
    41   15   40 1  
    42   18   41 1  
    43   18   42 1  
    44   19   43 1  
    45   19   44 1  
    46   22   45 1  
    47   22   46 1  
    48   23   47 1  
    49   24   48 1  
    50   24   49 1  
    51   25   50 1  
    52   25   51 1  
    53   25   52 1  
@<TRIPOS>SUBSTRUCTURE
     1 IBA         1

