### 
### Created by X-TOOL on Mon Sep 10 21:12:51 2018
### 

@<TRIPOS>MOLECULE
1vcu_ligand
   38    38     1     0     0
SMALL
GAST_HUCK


@<TRIPOS>ATOM
      1 C1         10.3920    3.8360    7.6340 C.2       1 DAN         0.0637
      2 C2         10.4530    5.0810    8.3340 C.3       1 DAN         0.1137
      3 C3          9.4390    5.3690    9.4640 C.3       1 DAN         0.0137
      4 C4         10.0400    6.3520   10.4910 C.3       1 DAN         0.0845
      5 C5         10.8740    7.4410    9.8330 C.3       1 DAN         0.0967
      6 C6         12.0060    6.7630    9.0230 C.3       1 DAN         0.1147
      7 C7         12.9210    7.7780    8.2950 C.3       1 DAN         0.1116
      8 C8         14.0940    7.1090    7.5110 C.3       1 DAN         0.1065
      9 C9         14.9750    8.1510    6.8080 C.3       1 DAN         0.0727
     10 C10        11.0030    9.5750   11.1250 C.2       1 DAN         0.1733
     11 C11        11.6100   10.3450   12.2730 C.3       1 DAN         0.0257
     12 N5         11.3800    8.3040   10.9130 N.am      1 DAN        -0.2790
     13 O1A        11.4290    3.3790    6.8690 O.co2     1 DAN        -0.5663
     14 O1B         9.3360    3.0920    7.7250 O.co2     1 DAN        -0.5663
     15 O4          8.9620    6.9120   11.2330 O.3       1 DAN        -0.3892
     16 O6         11.4020    5.9040    8.0000 O.3       1 DAN        -0.3543
     17 O7         12.1690    8.5060    7.3140 O.3       1 DAN        -0.3865
     18 O8         14.9200    6.3740    8.4160 O.3       1 DAN        -0.3869
     19 O9         15.7280    8.9330    7.7010 O.3       1 DAN        -0.3924
     20 O10        10.0790   10.2290   10.3410 O.2       1 DAN        -0.3974
     21 H1          9.7759    5.5515    7.6059 H         1 DAN         0.0767
     22 H2          9.1843    4.4266    9.9709 H         1 DAN         0.0334
     23 H3          8.5291    5.8097    9.0305 H         1 DAN         0.0334
     24 H4         10.6924    5.7909   11.1762 H         1 DAN         0.0619
     25 H5         10.2516    8.0383    9.1506 H         1 DAN         0.0608
     26 H6         12.6170    6.1566    9.7078 H         1 DAN         0.0648
     27 H7         13.3332    8.4716    9.0427 H         1 DAN         0.0647
     28 H8         13.6733    6.4257    6.7586 H         1 DAN         0.0643
     29 H9         14.3267    8.8178    6.2206 H         1 DAN         0.0584
     30 H10        15.6675    7.6256    6.1339 H         1 DAN         0.0584
     31 H11        11.1889   11.3610   12.2964 H         1 DAN         0.0467
     32 H12        12.7004   10.4030   12.1398 H         1 DAN         0.0467
     33 H13        11.3829    9.8322   13.2193 H         1 DAN         0.0467
     34 H14        12.0568    7.9133   11.5369 H         1 DAN         0.1856
     35 H15         9.3074    7.4823   11.9098 H         1 DAN         0.2099
     36 H16        12.7288    9.1559    6.9057 H         1 DAN         0.2100
     37 H17        15.2978    6.9692    9.0527 H         1 DAN         0.2100
     38 H18        16.2507    9.5566    7.2108 H         1 DAN         0.2095
@<TRIPOS>BOND
     1    2    1 1  
     2    1   13 ar 
     3    1   14 ar 
     4    3    2 1  
     5   16    2 1  
     6    4    3 1  
     7    5    4 1  
     8    4   15 1  
     9    5    6 1  
    10   12    5 1  
    11    6    7 1  
    12    6   16 1  
    13    7    8 1  
    14    7   17 1  
    15    8    9 1  
    16    8   18 1  
    17    9   19 1  
    18   10   11 1  
    19   10   12 am 
    20   10   20 2  
    21    2   21 1  
    22    3   22 1  
    23    3   23 1  
    24    4   24 1  
    25    5   25 1  
    26    6   26 1  
    27    7   27 1  
    28    8   28 1  
    29    9   29 1  
    30    9   30 1  
    31   11   31 1  
    32   11   32 1  
    33   11   33 1  
    34   12   34 1  
    35   15   35 1  
    36   17   36 1  
    37   18   37 1  
    38   19   38 1  
@<TRIPOS>SUBSTRUCTURE
     1 DAN         1

