### 
### Created by X-TOOL on Mon Sep 10 21:12:52 2018
### 

@<TRIPOS>MOLECULE
1vea_ligand
   38    40     1     0     0
SMALL
GAST_HUCK


@<TRIPOS>ATOM
      1 C1         47.5760 -104.1540   85.8410 C.ar      1 HBN        -0.0625
      2 C2         48.7270 -103.3370   85.8210 C.ar      1 HBN        -0.0671
      3 C3         49.0690 -102.5490   86.9540 C.ar      1 HBN        -0.0664
      4 C4         48.2600 -102.5680   88.1270 C.ar      1 HBN        -0.0603
      5 C4A        47.0960 -103.3810   88.1770 C.ar      1 HBN        -0.0275
      6 C8A        46.7520 -104.1930   86.9960 C.ar      1 HBN        -0.0345
      7 C8         45.6150 -104.9930   87.0380 C.ar      1 HBN        -0.0389
      8 C7         44.7720 -105.0540   88.1830 C.ar      1 HBN         0.0677
      9 C6         45.0930 -104.2690   89.3340 C.ar      1 HBN        -0.0336
     10 C5         46.2500 -103.4340   89.3320 C.ar      1 HBN        -0.0586
     11 N1         43.7410 -105.8130   88.1690 N.am      1 HBN        -0.2282
     12 N          40.7010 -107.8190   89.1320 N.4       1 HBN         0.2398
     13 CA         41.8840 -107.4200   88.3920 C.3       1 HBN         0.0821
     14 C          43.0920 -106.7670   89.0460 C.2       1 HBN         0.2550
     15 O          43.4620 -107.0920   90.1560 O.2       1 HBN        -0.3779
     16 CB         42.0380 -107.6090   87.0730 C.3       1 HBN         0.0633
     17 CG         41.2440 -108.1990   85.9550 C.2       1 HBN         0.0594
     18 ND1        41.6720 -108.0770   84.6490 N.pl3     1 HBN        -0.2622
     19 CD2        40.0600 -108.9180   86.0510 C.2       1 HBN        -0.0274
     20 CE1        40.6730 -108.7600   84.0420 C.2       1 HBN         0.0875
     21 NE2        39.6590 -109.3010   84.7860 N.2       1 HBN        -0.3437
     22 H1         47.3213 -104.7521   84.9735 H         1 HBN         0.0576
     23 H2         49.3536 -103.3102   84.9369 H         1 HBN         0.0603
     24 H3         49.9558 -101.9263   86.9252 H         1 HBN         0.0573
     25 H4         48.5332 -101.9611   88.9826 H         1 HBN         0.0612
     26 H5         45.3624 -105.5902   86.1693 H         1 HBN         0.0435
     27 H6         44.4559 -104.3083   90.2102 H         1 HBN         0.0569
     28 H7         46.4893 -102.8388   90.2058 H         1 HBN         0.0614
     29 H8         43.2412 -105.7215   87.3077 H         1 HBN         0.2270
     30 H9         40.0312 -108.2281   88.4995 H         1 HBN         0.2017
     31 H10        40.2938 -107.0108   89.5759 H         1 HBN         0.2017
     32 H11        40.9563 -108.4953   89.8345 H         1 HBN         0.2017
     33 H12        41.4201 -106.4381   88.2168 H         1 HBN         0.1128
     34 H13        42.9707 -108.1905   87.0284 H         1 HBN         0.0525
     35 H14        42.2253 -106.5871   86.7116 H         1 HBN         0.0525
     36 H15        42.5004 -107.6084   84.2552 H         1 HBN         0.2386
     37 H16        39.5318 -109.1439   86.9762 H         1 HBN         0.0324
     38 H17        40.6760 -108.8793   82.9596 H         1 HBN         0.1149
@<TRIPOS>BOND
     1    1    2 ar 
     2    6    1 ar 
     3    2    3 ar 
     4    4    3 ar 
     5    5    4 ar 
     6    6    5 ar 
     7   10    5 ar 
     8    7    6 ar 
     9    8    7 ar 
    10    8    9 ar 
    11   11    8 1  
    12    9   10 ar 
    13   14   11 am 
    14   13   12 1  
    15   13   14 1  
    16   13   16 1  
    17   14   15 2  
    18   16   17 1  
    19   17   18 1  
    20   17   19 2  
    21   18   20 1  
    22   19   21 1  
    23   20   21 2  
    24    1   22 1  
    25    2   23 1  
    26    3   24 1  
    27    4   25 1  
    28    7   26 1  
    29    9   27 1  
    30   10   28 1  
    31   11   29 1  
    32   12   30 1  
    33   12   31 1  
    34   12   32 1  
    35   13   33 1  
    36   16   34 1  
    37   16   35 1  
    38   18   36 1  
    39   19   37 1  
    40   20   38 1  
@<TRIPOS>SUBSTRUCTURE
     1 HBN         1

