### 
### Created by X-TOOL on Mon Sep 10 21:12:52 2018
### 

@<TRIPOS>MOLECULE
1veb_ligand
   65    68     1     0     0
SMALL
GAST_HUCK


@<TRIPOS>ATOM
      1 F96        16.8240   11.9770   -3.3020 F         1 I05        -0.1869
      2 C76        15.8530   11.7290   -4.1690 C.ar      1 I05         0.1713
      3 C75        16.1500   11.0570   -5.3140 C.ar      1 I05         0.1187
      4 O95        17.4690   10.7100   -5.4620 O.3       1 I05        -0.3271
      5 C97        18.0560   10.6450   -6.7560 C.3       1 I05         0.0562
      6 C74        15.1360   10.7910   -6.2300 C.ar      1 I05        -0.0381
      7 C73        13.8390   11.2110   -5.9470 C.ar      1 I05        -0.0390
      8 C72        13.5570   11.8930   -4.7480 C.ar      1 I05         0.0952
      9 O92        12.3110   12.2920   -4.4700 O.3       1 I05        -0.3355
     10 C71        14.5960   12.1430   -3.8540 C.ar      1 I05         0.0867
     11 C61        14.5430   12.8900   -2.5590 C.2       1 I05         0.1467
     12 O62        15.2520   13.8790   -2.4840 O.2       1 I05        -0.3800
     13 C54        13.8030   12.5010   -1.3470 C.ar      1 I05         0.0239
     14 C55        13.5010   11.1890   -1.1020 C.ar      1 I05        -0.0502
     15 C56        12.8310   10.8320    0.0810 C.ar      1 I05        -0.0521
     16 C53        13.4680   13.4670   -0.4180 C.ar      1 I05        -0.0502
     17 C52        12.8010   13.1110    0.7520 C.ar      1 I05        -0.0521
     18 C51        12.4680   11.7820    1.0270 C.ar      1 I05        -0.0126
     19 C42        11.7440   11.4020    2.3160 C.3       1 I05         0.0843
     20 O41        11.1540   10.1240    2.2150 O.3       1 I05        -0.3608
     21 C37        10.4810    9.6310    3.3640 C.3       1 I05         0.0894
     22 C36        11.5120    9.1520    4.3610 C.3       1 I05        -0.0192
     23 C35        12.6820    8.3870    3.7700 C.3       1 I05        -0.0102
     24 C34        12.3730    6.9230    3.6020 C.3       1 I05        -0.0335
     25 N33        11.2480    6.7470    2.7220 N.4       1 I05         0.2287
     26 C32         9.9620    7.0790    3.2880 C.3       1 I05        -0.0077
     27 C31         9.5220    8.5090    2.9420 C.3       1 I05         0.1075
     28 N23         8.1780    8.7210    3.4780 N.am      1 I05        -0.2737
     29 C21         7.1590    8.9870    2.6590 C.2       1 I05         0.2156
     30 O22         7.3670    9.1610    1.4620 O.2       1 I05        -0.3793
     31 C14         5.7400    9.0830    3.1800 C.ar      1 I05         0.0697
     32 C13         4.6720    9.2630    2.3010 C.ar      1 I05        -0.0141
     33 C12         3.3770    9.3330    2.7790 C.ar      1 I05         0.0169
     34 N11         3.1440    9.2170    4.0740 N.ar      1 I05        -0.2918
     35 C16         4.1200    9.0440    4.9540 C.ar      1 I05         0.0169
     36 C15         5.4440    8.9780    4.5360 C.ar      1 I05        -0.0141
     37 H1         19.1123   10.3519   -6.6651 H         1 I05         0.0571
     38 H2         17.9894   11.6311   -7.2388 H         1 I05         0.0571
     39 H3         17.5203    9.9017   -7.3647 H         1 I05         0.0571
     40 H4         15.3534   10.2636   -7.1518 H         1 I05         0.0544
     41 H5         13.0417   11.0117   -6.6539 H         1 I05         0.0496
     42 H6         12.0132   12.8903   -5.1452 H         1 I05         0.2473
     43 H7         13.7783   10.4255   -1.8198 H         1 I05         0.0652
     44 H8         12.5918    9.7899    0.2593 H         1 I05         0.0571
     45 H9         13.7247   14.5043   -0.5999 H         1 I05         0.0652
     46 H10        12.5342   13.8824    1.4653 H         1 I05         0.0571
     47 H11        10.9580   12.1446    2.5178 H         1 I05         0.0735
     48 H12        12.4667   11.3985    3.1453 H         1 I05         0.0735
     49 H13         9.8957   10.4425    3.8211 H         1 I05         0.0623
     50 H14        11.0061    8.4940    5.0829 H         1 I05         0.0293
     51 H15        11.9121   10.0324    4.8851 H         1 I05         0.0293
     52 H16        13.5490    8.4922    4.4387 H         1 I05         0.0318
     53 H17        12.9242    8.8138    2.7856 H         1 I05         0.0318
     54 H18        12.1370    6.4870    4.5840 H         1 I05         0.0814
     55 H19        13.2499    6.4137    3.1759 H         1 I05         0.0814
     56 H20        11.2229    5.7800    2.4387 H         1 I05         0.2014
     57 H21        11.3917    7.3306    1.9128 H         1 I05         0.2014
     58 H22        10.0221    6.9829    4.3821 H         1 I05         0.0837
     59 H23         9.2121    6.3747    2.8986 H         1 I05         0.0837
     60 H24         9.4547    8.5621    1.8454 H         1 I05         0.0635
     61 H25         8.0218    8.6663    4.4642 H         1 I05         0.1854
     62 H26         4.8588    9.3485    1.2366 H         1 I05         0.0762
     63 H27         2.5527    9.4831    2.0912 H         1 I05         0.0837
     64 H28         3.8838    8.9533    6.0081 H         1 I05         0.0837
     65 H29         6.2396    8.8458    5.2603 H         1 I05         0.0762
@<TRIPOS>BOND
     1    1    2 1  
     2    2    3 ar 
     3    2   10 ar 
     4    3    4 1  
     5    3    6 ar 
     6    4    5 1  
     7    6    7 ar 
     8    7    8 ar 
     9    8    9 1  
    10    8   10 ar 
    11   10   11 1  
    12   11   12 2  
    13   11   13 1  
    14   13   14 ar 
    15   13   16 ar 
    16   14   15 ar 
    17   15   18 ar 
    18   16   17 ar 
    19   17   18 ar 
    20   18   19 1  
    21   19   20 1  
    22   20   21 1  
    23   21   22 1  
    24   21   27 1  
    25   22   23 1  
    26   23   24 1  
    27   24   25 1  
    28   25   26 1  
    29   26   27 1  
    30   27   28 1  
    31   28   29 am 
    32   29   30 2  
    33   29   31 1  
    34   31   32 ar 
    35   31   36 ar 
    36   32   33 ar 
    37   33   34 ar 
    38   34   35 ar 
    39   35   36 ar 
    40    5   37 1  
    41    5   38 1  
    42    5   39 1  
    43    6   40 1  
    44    7   41 1  
    45    9   42 1  
    46   14   43 1  
    47   15   44 1  
    48   16   45 1  
    49   17   46 1  
    50   19   47 1  
    51   19   48 1  
    52   21   49 1  
    53   22   50 1  
    54   22   51 1  
    55   23   52 1  
    56   23   53 1  
    57   24   54 1  
    58   24   55 1  
    59   25   56 1  
    60   25   57 1  
    61   26   58 1  
    62   26   59 1  
    63   27   60 1  
    64   28   61 1  
    65   32   62 1  
    66   33   63 1  
    67   35   64 1  
    68   36   65 1  
@<TRIPOS>SUBSTRUCTURE
     1 I05         1

