### 
### Created by X-TOOL on Mon Sep 10 21:12:45 2018
### 

@<TRIPOS>MOLECULE
1vfn_ligand
   14    15     1     0     0
SMALL
GAST_HUCK


@<TRIPOS>ATOM
      1 N1         74.5940   49.8230   49.6500 N.am      1 HPA        -0.2043
      2 C2         75.5050   48.7720   49.5940 C.2       1 HPA         0.1192
      3 N3         75.1940   47.4740   49.7740 N.2       1 HPA        -0.3014
      4 C4         73.8670   47.3080   49.9700 C.2       1 HPA         0.0724
      5 C5         72.8860   48.2940   50.0930 C.2       1 HPA         0.1591
      6 C6         73.2290   49.6670   49.9560 C.2       1 HPA         0.2472
      7 O6         72.4870   50.6560   50.0020 O.2       1 HPA        -0.4002
      8 N7         71.6350   47.7090   50.3590 N.pl3     1 HPA        -0.2540
      9 C8         71.8970   46.4310   50.3920 C.2       1 HPA         0.1003
     10 N9         73.2370   46.1020   50.1700 N.2       1 HPA        -0.3028
     11 H1         74.9300   50.7457   49.4612 H         1 HPA         0.2537
     12 H2         76.5461   49.0174   49.3895 H         1 HPA         0.1447
     13 H3         70.7280   48.1777   50.4953 H         1 HPA         0.2375
     14 H4         71.1312   45.6795   50.5780 H         1 HPA         0.1286
@<TRIPOS>BOND
     1    1    6 am 
     2    1    2 1  
     3    2    3 2  
     4    3    4 1  
     5    4   10 1  
     6    4    5 2  
     7    5    8 1  
     8    5    6 1  
     9    6    7 2  
    10    8    9 1  
    11    9   10 2  
    12    1   11 1  
    13    2   12 1  
    14    8   13 1  
    15    9   14 1  
@<TRIPOS>SUBSTRUCTURE
     1 HPA         1

