### 
### Created by X-TOOL on Mon Sep 10 21:12:52 2018
### 

@<TRIPOS>MOLECULE
1vj5_ligand
   34    35     1     0     0
SMALL
GAST_HUCK


@<TRIPOS>ATOM
      1 C1         13.5790   10.6230  142.8130 C.3       1 CIU        -0.0510
      2 C2         14.0880   10.8790  141.3560 C.3       1 CIU        -0.0301
      3 C3         15.2020   11.9700  141.3250 C.3       1 CIU         0.0430
      4 C4         14.6830   13.3090  141.9410 C.3       1 CIU        -0.0301
      5 C5         14.2110   13.0920  143.4170 C.3       1 CIU        -0.0510
      6 C6         13.1240   11.9580  143.5160 C.3       1 CIU        -0.0529
      7 N1         15.6320   12.1750  139.9280 N.am      1 CIU        -0.2647
      8 C7         16.4570   11.3760  139.2540 C.2       1 CIU         0.2882
      9 O2         16.6090   10.2710  139.7650 O.2       1 CIU        -0.3901
     10 N2         17.0770   11.7040  138.1310 N.am      1 CIU        -0.2180
     11 C8         17.9780   10.9550  137.3190 C.ar      1 CIU         0.0692
     12 I4         21.1070    8.3390  134.4770 I         1 CIU        -0.0626
     13 C9         18.3260    9.6360  137.6510 C.ar      1 CIU        -0.0387
     14 C10        19.2730    8.8590  136.7900 C.ar      1 CIU        -0.0649
     15 C11        19.7880    9.4640  135.6590 C.ar      1 CIU        -0.0066
     16 C12        19.4350   10.8040  135.3180 C.ar      1 CIU        -0.0649
     17 C13        18.5250   11.5450  136.1460 C.ar      1 CIU        -0.0387
     18 H1         14.3918   10.1705  143.4000 H         1 CIU         0.0266
     19 H2         12.7247    9.9311  142.7755 H         1 CIU         0.0266
     20 H3         13.2433   11.2126  140.7354 H         1 CIU         0.0287
     21 H4         14.4943    9.9413  140.9490 H         1 CIU         0.0287
     22 H5         16.0611   11.6206  141.9165 H         1 CIU         0.0553
     23 H6         13.8375   13.6783  141.3421 H         1 CIU         0.0287
     24 H7         15.4944   14.0515  141.9268 H         1 CIU         0.0287
     25 H8         13.7827   14.0313  143.7968 H         1 CIU         0.0266
     26 H9         15.0785   12.8097  144.0315 H         1 CIU         0.0266
     27 H10        12.9285   11.7486  144.5780 H         1 CIU         0.0265
     28 H11        12.1999   12.3123  143.0359 H         1 CIU         0.0265
     29 H12        15.2755   12.9776  139.4497 H         1 CIU         0.1856
     30 H13        16.8815   12.6267  137.7986 H         1 CIU         0.2265
     31 H14        17.9056    9.1763  138.5381 H         1 CIU         0.0507
     32 H15        19.5490    7.8430  137.0483 H         1 CIU         0.0604
     33 H16        19.8551   11.2642  134.4310 H         1 CIU         0.0604
     34 H17        18.2537   12.5591  135.8756 H         1 CIU         0.0507
@<TRIPOS>BOND
     1    2    1 1  
     2    1    6 1  
     3    2    3 1  
     4    3    4 1  
     5    3    7 1  
     6    4    5 1  
     7    5    6 1  
     8    7    8 am 
     9    8    9 2  
    10    8   10 am 
    11   10   11 1  
    12   11   13 ar 
    13   11   17 ar 
    14   13   14 ar 
    15   14   15 ar 
    16   15   16 ar 
    17   16   17 ar 
    18   15   12 1  
    19    1   18 1  
    20    1   19 1  
    21    2   20 1  
    22    2   21 1  
    23    3   22 1  
    24    4   23 1  
    25    4   24 1  
    26    5   25 1  
    27    5   26 1  
    28    6   27 1  
    29    6   28 1  
    30    7   29 1  
    31   10   30 1  
    32   13   31 1  
    33   14   32 1  
    34   16   33 1  
    35   17   34 1  
@<TRIPOS>SUBSTRUCTURE
     1 CIU         1

