### 
### Created by X-TOOL on Mon Sep 10 21:12:53 2018
### 

@<TRIPOS>MOLECULE
1vj6_ligand
  100   100     1     0     0
SMALL
GAST_HUCK


@<TRIPOS>ATOM
      1 N          11.9420   -2.3830   14.9530 N.4       1 TYR         0.2392
      2 CA         11.0820   -1.3430   15.4280 C.3       1 TYR         0.0730
      3 C           9.6590   -1.7130   15.1920 C.2       1 TYR         0.2286
      4 O           8.8380   -1.7160   16.1090 O.2       1 TYR        -0.3905
      5 CB         11.4400   -0.0250   14.7200 C.3       1 TYR         0.0365
      6 CG         11.3170    1.1540   15.6240 C.ar      1 TYR        -0.0460
      7 CD1        10.1350    1.8460   15.7380 C.ar      1 TYR        -0.0684
      8 CD2        12.4200    1.5860   16.3220 C.ar      1 TYR        -0.0684
      9 CE1        10.0580    2.9680   16.5300 C.ar      1 TYR        -0.0398
     10 CE2        12.3520    2.7100   17.1110 C.ar      1 TYR        -0.0398
     11 CZ         11.1710    3.4080   17.2050 C.ar      1 TYR         0.0805
     12 OH         11.1170    4.5830   17.9840 O.3       1 TYR        -0.3376
     13 N           9.3280   -2.0240   13.9260 N.am      1 LEU        -0.2609
     14 CA          8.0190   -2.2450   13.3950 C.3       1 LEU         0.1313
     15 C           7.1010   -1.0750   13.4870 C.2       1 LEU         0.2039
     16 O           7.4670   -0.0070   13.9760 O.2       1 LEU        -0.3944
     17 CB          7.3700   -3.5170   13.9650 C.3       1 LEU        -0.0101
     18 CG          6.4510   -4.3350   13.0430 C.3       1 LEU        -0.0425
     19 CD1         7.2470   -4.9730   11.8920 C.3       1 LEU        -0.0625
     20 CD2         5.8150   -5.4380   13.9060 C.3       1 LEU        -0.0625
     21 N           5.8630   -1.2500   12.9920 N.am      1 VAL        -0.2635
     22 CA          4.7130   -0.4030   13.0740 C.3       1 VAL         0.1333
     23 C           4.9610    1.0670   13.0850 C.2       1 VAL         0.2042
     24 O           5.1430    1.7280   14.1060 O.2       1 VAL        -0.3944
     25 CB          3.6410   -0.8570   14.0210 C.3       1 VAL        -0.0063
     26 CG1         2.9960   -2.1150   13.4170 C.3       1 VAL        -0.0584
     27 CG2         4.1980   -1.1220   15.4300 C.3       1 VAL        -0.0584
     28 N           4.9880    1.6100   11.8550 N.am      1 THR        -0.2613
     29 CA          5.3730    2.9560   11.5700 C.3       1 THR         0.1565
     30 C           4.1880    3.4640   10.8220 C.2       1 THR         0.2065
     31 O           3.8120    2.8720    9.8130 O.2       1 THR        -0.3943
     32 CB          6.5680    3.0700   10.6700 C.3       1 THR         0.0924
     33 OG1         7.6800    2.3760   11.2140 O.3       1 THR        -0.3874
     34 CG2         7.0000    4.5340   10.4790 C.3       1 THR        -0.0346
     35 N           3.5680    4.5410   11.3360 N.am      1 SER        -0.2615
     36 CA          2.5430    5.2840   10.6680 C.3       1 SER         0.1539
     37 C           3.1360    6.0640    9.5450 C.2       1 SER         0.2056
     38 O           4.0560    6.8610    9.7270 O.2       1 SER        -0.3943
     39 CB          1.7630    6.2100   11.6150 C.3       1 SER         0.0843
     40 OG          2.5840    7.1710   12.2630 O.3       1 SER        -0.3903
     41 N           2.6550    5.8130    8.3150 N.am      1 VAL        -0.2692
     42 CA          3.1450    6.4260    7.1190 C.3       1 VAL         0.0967
     43 C           1.9200    6.4650    6.2180 C.2       1 VAL         0.0603
     44 O           0.8730    5.8280    6.5110 O.co2     1 VAL        -0.5666
     45 CB          4.3960    5.8060    6.5720 C.3       1 VAL        -0.0118
     46 CG1         4.6980    4.4030    7.1250 C.3       1 VAL        -0.0590
     47 CG2         4.4840    5.7930    5.0360 C.3       1 VAL        -0.0590
     48 OXT         1.9750    7.2710    5.2510 O.co2     1 VAL        -0.5666
     49 H1         12.9027   -2.1253   15.1162 H         1 TYR         0.2017
     50 H2         11.7933   -2.5170   13.9651 H         1 TYR         0.2017
     51 H3         11.7360   -3.2394   15.4431 H         1 TYR         0.2017
     52 H4         11.2369   -1.2164   16.5096 H         1 TYR         0.1120
     53 H5         10.7621    0.1127   13.8648 H         1 TYR         0.0486
     54 H6         12.4773   -0.0875   14.3593 H         1 TYR         0.0486
     55 H7          9.2576    1.5053   15.2002 H         1 TYR         0.0530
     56 H8         13.3512    1.0358   16.2497 H         1 TYR         0.0530
     57 H9          9.1205    3.5044   16.6215 H         1 TYR         0.0525
     58 H10        13.2265    3.0448   17.6571 H         1 TYR         0.0525
     59 H11        10.2396    4.9454   17.9480 H         1 TYR         0.2458
     60 H12        10.0866   -2.1109   13.2802 H         1 LEU         0.1885
     61 H13         8.1626   -2.4277   12.3198 H         1 LEU         0.0800
     62 H14         6.7727   -3.2161   14.8383 H         1 LEU         0.0315
     63 H15         8.1839   -4.1823   14.2890 H         1 LEU         0.0315
     64 H16         5.6685   -3.6844   12.6255 H         1 LEU         0.0298
     65 H17         6.5650   -5.5505   11.2506 H         1 LEU         0.0232
     66 H18         8.0164   -5.6419   12.3049 H         1 LEU         0.0232
     67 H19         7.7288   -4.1830   11.2973 H         1 LEU         0.0232
     68 H20         5.2466   -4.9784   14.7280 H         1 LEU         0.0232
     69 H21         6.6056   -6.0804   14.3212 H         1 LEU         0.0232
     70 H22         5.1379   -6.0440   13.2861 H         1 LEU         0.0232
     71 H23         5.7250   -2.1034   12.4893 H         1 VAL         0.1883
     72 H24         4.2439   -0.5549   12.0907 H         1 VAL         0.0802
     73 H25         2.8781   -0.0684   14.0995 H         1 VAL         0.0343
     74 H26         2.2022   -2.4776   14.0867 H         1 VAL         0.0234
     75 H27         3.7600   -2.8972   13.2969 H         1 VAL         0.0234
     76 H28         2.5641   -1.8704   12.4354 H         1 VAL         0.0234
     77 H29         4.6493   -0.2000   15.8252 H         1 VAL         0.0234
     78 H30         4.9620   -1.9118   15.3797 H         1 VAL         0.0234
     79 H31         3.3811   -1.4436   16.0927 H         1 VAL         0.0234
     80 H32         4.7196    1.0307   11.0854 H         1 THR         0.1884
     81 H33         5.5512    3.5185   12.4984 H         1 THR         0.0826
     82 H34         6.3102    2.6377    9.6919 H         1 THR         0.0639
     83 H35         7.4599    1.4574   11.3153 H         1 THR         0.2101
     84 H36         7.8761    4.5741    9.8151 H         1 THR         0.0257
     85 H37         7.2593    4.9701   11.4550 H         1 THR         0.0257
     86 H38         6.1735    5.1046   10.0303 H         1 THR         0.0257
     87 H39         3.8422    4.8440   12.2487 H         1 SER         0.1884
     88 H40         1.8280    4.5628   10.2453 H         1 SER         0.0823
     89 H41         1.2750    5.5926   12.3836 H         1 SER         0.0606
     90 H42         0.9973    6.7418   11.0312 H         1 SER         0.0606
     91 H43         3.0054    7.7175   11.6102 H         1 SER         0.2097
     92 H44         1.9064    5.1554    8.2307 H         1 VAL         0.1875
     93 H45         3.4147    7.4663    7.3534 H         1 VAL         0.0729
     94 H46         5.2148    6.4538    6.9182 H         1 VAL         0.0336
     95 H47         5.6270    4.0235    6.6745 H         1 VAL         0.0234
     96 H48         3.8675    3.7251    6.8786 H         1 VAL         0.0234
     97 H49         4.8156    4.4569    8.2174 H         1 VAL         0.0234
     98 H50         4.2670    6.7991    4.6478 H         1 VAL         0.0234
     99 H51         3.7513    5.0785    4.6328 H         1 VAL         0.0234
    100 H52         5.4966    5.4922    4.7292 H         1 VAL         0.0234
@<TRIPOS>BOND
     1    1    2 1  
     2    2    3 1  
     3    2    5 1  
     4    3    4 2  
     5    3   13 am 
     6    5    6 1  
     7    6    7 ar 
     8    6    8 ar 
     9    7    9 ar 
    10    8   10 ar 
    11    9   11 ar 
    12   10   11 ar 
    13   11   12 1  
    14   13   14 1  
    15   14   15 1  
    16   14   17 1  
    17   15   16 2  
    18   15   21 am 
    19   17   18 1  
    20   18   19 1  
    21   18   20 1  
    22   21   22 1  
    23   22   23 1  
    24   22   25 1  
    25   23   24 2  
    26   23   28 am 
    27   25   26 1  
    28   25   27 1  
    29   28   29 1  
    30   29   30 1  
    31   29   32 1  
    32   30   31 2  
    33   30   35 am 
    34   32   33 1  
    35   32   34 1  
    36   35   36 1  
    37   36   37 1  
    38   36   39 1  
    39   37   38 2  
    40   37   41 am 
    41   39   40 1  
    42   41   42 1  
    43   42   43 1  
    44   42   45 1  
    45   43   44 ar 
    46   43   48 ar 
    47   45   46 1  
    48   45   47 1  
    49    1   49 1  
    50    1   50 1  
    51    1   51 1  
    52    2   52 1  
    53    5   53 1  
    54    5   54 1  
    55    7   55 1  
    56    8   56 1  
    57    9   57 1  
    58   10   58 1  
    59   12   59 1  
    60   13   60 1  
    61   14   61 1  
    62   17   62 1  
    63   17   63 1  
    64   18   64 1  
    65   19   65 1  
    66   19   66 1  
    67   19   67 1  
    68   20   68 1  
    69   20   69 1  
    70   20   70 1  
    71   21   71 1  
    72   22   72 1  
    73   25   73 1  
    74   26   74 1  
    75   26   75 1  
    76   26   76 1  
    77   27   77 1  
    78   27   78 1  
    79   27   79 1  
    80   28   80 1  
    81   29   81 1  
    82   32   82 1  
    83   33   83 1  
    84   34   84 1  
    85   34   85 1  
    86   34   86 1  
    87   35   87 1  
    88   36   88 1  
    89   39   89 1  
    90   39   90 1  
    91   40   91 1  
    92   41   92 1  
    93   42   93 1  
    94   45   94 1  
    95   46   95 1  
    96   46   96 1  
    97   46   97 1  
    98   47   98 1  
    99   47   99 1  
   100   47  100 1  
@<TRIPOS>SUBSTRUCTURE
     1 TYR         1

