### 
### Created by X-TOOL on Mon Sep 10 21:12:52 2018
### 

@<TRIPOS>MOLECULE
1vj9_ligand
   74    76     1     0     0
SMALL
GAST_HUCK


@<TRIPOS>ATOM
      1 C1         26.9540   13.3560   31.6730 C.3       1 5IN         0.0819
      2 O2         27.7720   12.2340   32.0140 O.3       1 5IN        -0.3626
      3 C3         27.8100   11.3520   30.9070 C.3       1 5IN         0.0904
      4 C4         29.0800   10.4880   30.9340 C.3       1 5IN         0.1544
      5 N5         30.2260   11.3780   30.9580 N.am      1 5IN        -0.2618
      6 C6         31.5370   10.8760   30.9940 C.2       1 5IN         0.2024
      7 C7         32.6730   11.9030   31.0090 C.3       1 5IN         0.1490
      8 N8         33.6380   11.7600   29.9540 N.am      1 5IN        -0.2258
      9 S9         33.4900   12.0200   28.3290 S.o2      1 5IN         0.0511
     10 C10        32.1710   10.9600   27.7080 C.3       1 5IN         0.1181
     11 C11        32.0150   11.2020   26.1530 C.ar      1 5IN        -0.0204
     12 C12        31.0180   12.1550   25.7940 C.ar      1 5IN        -0.0587
     13 C13        30.7720   12.4540   24.4210 C.ar      1 5IN        -0.0685
     14 C14        31.5280   11.7920   23.4260 C.ar      1 5IN        -0.0687
     15 C15        32.5220   10.8440   23.7770 C.ar      1 5IN        -0.0685
     16 C16        32.7670   10.5470   25.1410 C.ar      1 5IN        -0.0587
     17 O17        33.0920   13.3950   28.2000 O.2       1 5IN        -0.1532
     18 O18        34.8540   11.7180   27.8430 O.2       1 5IN        -0.1532
     19 C19        33.5270   11.8780   32.2870 C.3       1 5IN         0.0809
     20 O20        32.6690   12.0990   33.3800 O.3       1 5IN        -0.3907
     21 O21        31.7780    9.6830   31.0070 O.2       1 5IN        -0.3948
     22 C22        29.0220    9.5980   29.7210 C.2       1 5IN         0.2058
     23 O23        29.2530   10.0540   28.6280 O.2       1 5IN        -0.3943
     24 N24        28.6870    8.2860   29.9850 N.am      1 5IN        -0.2736
     25 C25        28.5770    7.3270   28.9210 C.3       1 5IN         0.0645
     26 C26        29.8580    6.5740   28.6010 C.ar      1 5IN        -0.0210
     27 C27        29.9480    5.2030   28.9490 C.ar      1 5IN        -0.0584
     28 C28        31.1100    4.4580   28.6640 C.ar      1 5IN        -0.0633
     29 C29        32.2480    5.0480   28.0170 C.ar      1 5IN         0.0188
     30 C30        32.1860    6.4360   27.6530 C.ar      1 5IN        -0.0633
     31 C31        30.9930    7.1780   27.9490 C.ar      1 5IN        -0.0584
     32 C32        33.3730    4.2280   27.7550 C.cat     1 5IN         0.2318
     33 N33        33.3600    2.9200   28.0940 N.pl3     1 5IN        -0.2729
     34 N34        34.5170    4.6290   27.1660 N.pl3     1 5IN        -0.2729
     35 C35        26.4810   14.0440   32.9540 C.ar      1 5IN        -0.0175
     36 C36        25.1870   13.7490   33.4850 C.ar      1 5IN        -0.0581
     37 C37        24.7470   14.3920   34.6820 C.ar      1 5IN        -0.0685
     38 C38        25.5980   15.3270   35.3460 C.ar      1 5IN        -0.0687
     39 C39        26.8890   15.6210   34.8150 C.ar      1 5IN        -0.0685
     40 C40        27.3330   14.9820   33.6210 C.ar      1 5IN        -0.0581
     41 H1         26.0821   13.0135   31.0964 H         1 5IN         0.0724
     42 H2         27.5375   14.0660   31.0685 H         1 5IN         0.0724
     43 H3         27.7951   11.9404   29.9777 H         1 5IN         0.0611
     44 H4         26.9279   10.6957   30.9397 H         1 5IN         0.0611
     45 H5         29.0972    9.8624   31.8386 H         1 5IN         0.0824
     46 H6         30.0794   12.3672   30.9487 H         1 5IN         0.1884
     47 H7         32.2009   12.8925   30.9192 H         1 5IN         0.0777
     48 H8         34.5429   11.4546   30.2503 H         1 5IN         0.1704
     49 H9         31.2276   11.2063   28.2173 H         1 5IN         0.0682
     50 H10        32.4243    9.9060   27.8948 H         1 5IN         0.0682
     51 H11        30.4447   12.6543   26.5668 H         1 5IN         0.0557
     52 H12        30.0154   13.1792   24.1440 H         1 5IN         0.0599
     53 H13        31.3450   12.0124   22.3805 H         1 5IN         0.0559
     54 H14        33.0944   10.3465   23.0025 H         1 5IN         0.0599
     55 H15        33.5261    9.8220   25.4114 H         1 5IN         0.0557
     56 H16        34.2895   12.6696   32.2435 H         1 5IN         0.0602
     57 H17        34.0194   10.8997   32.3893 H         1 5IN         0.0602
     58 H18        33.1739   12.0883   34.1847 H         1 5IN         0.2097
     59 H19        28.5188    7.9992   30.9281 H         1 5IN         0.1878
     60 H20        28.2582    7.8596   28.0129 H         1 5IN         0.0683
     61 H21        27.8097    6.5909   29.2028 H         1 5IN         0.0683
     62 H22        29.1113    4.7206   29.4413 H         1 5IN         0.0557
     63 H23        31.1456    3.4106   28.9409 H         1 5IN         0.0599
     64 H24        33.0258    6.9153   27.1630 H         1 5IN         0.0599
     65 H25        30.9442    8.2253   27.6736 H         1 5IN         0.0557
     66 H26        34.1816    2.3296   27.9005 H         1 5IN         0.3180
     67 H27        32.5285    2.5133   28.5459 H         1 5IN         0.3180
     68 H28        34.6273    5.6091   26.8692 H         1 5IN         0.3180
     69 H29        35.2809    3.9553   27.0127 H         1 5IN         0.3180
     70 H30        24.5414   13.0392   32.9805 H         1 5IN         0.0557
     71 H31        23.7662   14.1701   35.0868 H         1 5IN         0.0599
     72 H32        25.2626   15.8139   36.2546 H         1 5IN         0.0559
     73 H33        27.5332   16.3314   35.3204 H         1 5IN         0.0599
     74 H34        28.3143   15.2057   33.2183 H         1 5IN         0.0557
@<TRIPOS>BOND
     1    1    2 1  
     2    1   35 1  
     3    2    3 1  
     4    3    4 1  
     5    4    5 1  
     6    4   22 1  
     7    5    6 am 
     8    6    7 1  
     9    6   21 2  
    10    7    8 1  
    11    7   19 1  
    12    8    9 am 
    13    9   10 1  
    14    9   17 2  
    15    9   18 2  
    16   10   11 1  
    17   11   12 ar 
    18   11   16 ar 
    19   12   13 ar 
    20   13   14 ar 
    21   14   15 ar 
    22   15   16 ar 
    23   19   20 1  
    24   22   23 2  
    25   22   24 am 
    26   24   25 1  
    27   25   26 1  
    28   26   27 ar 
    29   26   31 ar 
    30   27   28 ar 
    31   28   29 ar 
    32   29   30 ar 
    33   29   32 1  
    34   30   31 ar 
    35   32   33 ar 
    36   32   34 ar 
    37   35   36 ar 
    38   35   40 ar 
    39   36   37 ar 
    40   37   38 ar 
    41   38   39 ar 
    42   39   40 ar 
    43    1   41 1  
    44    1   42 1  
    45    3   43 1  
    46    3   44 1  
    47    4   45 1  
    48    5   46 1  
    49    7   47 1  
    50    8   48 1  
    51   10   49 1  
    52   10   50 1  
    53   12   51 1  
    54   13   52 1  
    55   14   53 1  
    56   15   54 1  
    57   16   55 1  
    58   19   56 1  
    59   19   57 1  
    60   20   58 1  
    61   24   59 1  
    62   25   60 1  
    63   25   61 1  
    64   27   62 1  
    65   28   63 1  
    66   30   64 1  
    67   31   65 1  
    68   33   66 1  
    69   33   67 1  
    70   34   68 1  
    71   34   69 1  
    72   36   70 1  
    73   37   71 1  
    74   38   72 1  
    75   39   73 1  
    76   40   74 1  
@<TRIPOS>SUBSTRUCTURE
     1 5IN         1

