### 
### Created by X-TOOL on Mon Sep 10 21:12:52 2018
### 

@<TRIPOS>MOLECULE
1vja_ligand
   61    62     1     0     0
SMALL
GAST_HUCK


@<TRIPOS>ATOM
      1 O2         26.6200   11.5010   30.3330 O.3       1 7IN        -0.3903
      2 C3         27.6950   11.4140   31.2160 C.3       1 7IN         0.0843
      3 C4         28.9390   10.5140   31.0670 C.3       1 7IN         0.1539
      4 N5         30.0860   11.4000   31.0500 N.am      1 7IN        -0.2618
      5 C6         31.4060   10.9170   30.9290 C.2       1 7IN         0.2024
      6 C7         32.5150   11.9670   30.9090 C.3       1 7IN         0.1490
      7 N8         33.5050   11.7890   29.8860 N.am      1 7IN        -0.2258
      8 S9         33.4490   12.0880   28.2590 S.o2      1 7IN         0.0511
      9 C10        32.0990   11.1390   27.5200 C.3       1 7IN         0.1181
     10 C11        32.1310   11.3430   26.0080 C.ar      1 7IN        -0.0204
     11 C12        31.8260   12.6110   25.3700 C.ar      1 7IN        -0.0587
     12 C13        31.8810   12.7340   23.9270 C.ar      1 7IN        -0.0685
     13 C14        32.2400   11.5820   23.1410 C.ar      1 7IN        -0.0687
     14 C15        32.5410   10.3240   23.7700 C.ar      1 7IN        -0.0685
     15 C16        32.4870   10.2030   25.2030 C.ar      1 7IN        -0.0587
     16 O17        33.1630   13.4880   28.1530 O.2       1 7IN        -0.1532
     17 O18        34.8170   11.6920   27.8400 O.2       1 7IN        -0.1532
     18 C19        33.3410   12.0460   32.1970 C.3       1 7IN         0.0809
     19 O20        32.4440   12.2230   33.2660 O.3       1 7IN        -0.3907
     20 O21        31.6740    9.7320   30.8350 O.2       1 7IN        -0.3948
     21 C22        28.8140    9.7060   29.7820 C.2       1 7IN         0.2058
     22 O23        28.9940   10.2470   28.7110 O.2       1 7IN        -0.3943
     23 N24        28.5130    8.3620   29.9660 N.am      1 7IN        -0.2736
     24 C25        28.3800    7.4570   28.8450 C.3       1 7IN         0.0645
     25 C26        29.6510    6.6940   28.4840 C.ar      1 7IN        -0.0210
     26 C27        29.7260    5.2930   28.7870 C.ar      1 7IN        -0.0584
     27 C28        30.8930    4.5330   28.4710 C.ar      1 7IN        -0.0633
     28 C29        32.0570    5.1440   27.8310 C.ar      1 7IN         0.0188
     29 C30        32.0060    6.5630   27.5140 C.ar      1 7IN        -0.0633
     30 C31        30.8100    7.3170   27.8420 C.ar      1 7IN        -0.0584
     31 C32        33.1900    4.3320   27.5450 C.cat     1 7IN         0.2318
     32 N33        33.1990    3.0170   27.8500 N.pl3     1 7IN        -0.2729
     33 N34        34.3300    4.7580   26.9660 N.pl3     1 7IN        -0.2729
     34 H1         26.9332   11.7819   29.4813 H         1 7IN         0.2097
     35 H2         27.2496   11.1272   32.1800 H         1 7IN         0.0606
     36 H3         28.0907   12.4380   31.2851 H         1 7IN         0.0606
     37 H4         29.0166    9.8247   31.9207 H         1 7IN         0.0823
     38 H5         29.9368   12.3858   31.1265 H         1 7IN         0.1884
     39 H6         32.0203   12.9365   30.7500 H         1 7IN         0.0777
     40 H7         34.3766   11.4221   30.2110 H         1 7IN         0.1704
     41 H8         31.1366   11.4898   27.9209 H         1 7IN         0.0682
     42 H9         32.2259   10.0714   27.7526 H         1 7IN         0.0682
     43 H10        31.5561   13.4689   25.9752 H         1 7IN         0.0557
     44 H11        31.6553   13.6791   23.4465 H         1 7IN         0.0599
     45 H12        32.2840   11.6640   22.0610 H         1 7IN         0.0559
     46 H13        32.8088    9.4661   23.1640 H         1 7IN         0.0599
     47 H14        32.7141    9.2545   25.6762 H         1 7IN         0.0557
     48 H15        34.0360   12.8970   32.1455 H         1 7IN         0.0602
     49 H16        33.9106   11.1152   32.3353 H         1 7IN         0.0602
     50 H17        32.9302   12.2755   34.0805 H         1 7IN         0.2097
     51 H18        28.3854    8.0124   30.8942 H         1 7IN         0.1878
     52 H19        28.0718    8.0432   27.9667 H         1 7IN         0.0683
     53 H20        27.5979    6.7229   29.0888 H         1 7IN         0.0683
     54 H21        28.8837    4.8042   29.2631 H         1 7IN         0.0557
     55 H22        30.9165    3.4763   28.7117 H         1 7IN         0.0599
     56 H23        32.8498    7.0505   27.0393 H         1 7IN         0.0599
     57 H24        30.7737    8.3740   27.6043 H         1 7IN         0.0557
     58 H25        34.0279    2.4443   27.6358 H         1 7IN         0.3180
     59 H26        32.3770    2.5864   28.2970 H         1 7IN         0.3180
     60 H27        34.4305    5.7457   26.6918 H         1 7IN         0.3180
     61 H28        35.1008    4.0958   26.7976 H         1 7IN         0.3180
@<TRIPOS>BOND
     1    1    2 1  
     2    2    3 1  
     3    3    4 1  
     4    3   21 1  
     5    4    5 am 
     6    5    6 1  
     7    5   20 2  
     8    6    7 1  
     9    6   18 1  
    10    7    8 am 
    11    8    9 1  
    12    8   16 2  
    13    8   17 2  
    14    9   10 1  
    15   10   11 ar 
    16   10   15 ar 
    17   11   12 ar 
    18   12   13 ar 
    19   13   14 ar 
    20   14   15 ar 
    21   18   19 1  
    22   21   22 2  
    23   21   23 am 
    24   23   24 1  
    25   24   25 1  
    26   25   26 ar 
    27   25   30 ar 
    28   26   27 ar 
    29   27   28 ar 
    30   28   29 ar 
    31   28   31 1  
    32   29   30 ar 
    33   31   32 ar 
    34   31   33 ar 
    35    1   34 1  
    36    2   35 1  
    37    2   36 1  
    38    3   37 1  
    39    4   38 1  
    40    6   39 1  
    41    7   40 1  
    42    9   41 1  
    43    9   42 1  
    44   11   43 1  
    45   12   44 1  
    46   13   45 1  
    47   14   46 1  
    48   15   47 1  
    49   18   48 1  
    50   18   49 1  
    51   19   50 1  
    52   23   51 1  
    53   24   52 1  
    54   24   53 1  
    55   26   54 1  
    56   27   55 1  
    57   29   56 1  
    58   30   57 1  
    59   32   58 1  
    60   32   59 1  
    61   33   60 1  
    62   33   61 1  
@<TRIPOS>SUBSTRUCTURE
     1 7IN         1

