### 
### Created by X-TOOL on Mon Sep 10 21:12:52 2018
### 

@<TRIPOS>MOLECULE
1vjb_ligand
   59    61     1     0     0
SMALL
GAST_HUCK


@<TRIPOS>ATOM
      1 C10       -19.2580   54.3850  -10.0820 C.3       1 OHT        -0.0549
      2 C9        -19.2290   55.2590  -11.3080 C.3       1 OHT        -0.0213
      3 C8        -17.9430   56.0490  -11.4340 C.2       1 OHT        -0.0310
      4 C11       -16.8070   55.1990  -11.9480 C.ar      1 OHT        -0.0193
      5 C16       -15.7970   54.7000  -11.0560 C.ar      1 OHT        -0.0549
      6 C15       -14.7380   53.8970  -11.5380 C.ar      1 OHT        -0.0622
      7 C14       -14.6490   53.5700  -12.8940 C.ar      1 OHT        -0.0627
      8 C13       -15.6180   54.0420  -13.7800 C.ar      1 OHT        -0.0622
      9 C12       -16.6870   54.8500  -13.3090 C.ar      1 OHT        -0.0549
     10 C7        -17.8490   57.4090  -11.1200 C.2       1 OHT        -0.0248
     11 C1        -18.9540   58.2370  -10.4470 C.ar      1 OHT        -0.0376
     12 C2        -19.4370   59.4800  -11.0360 C.ar      1 OHT        -0.0657
     13 C3        -20.4430   60.2430  -10.3960 C.ar      1 OHT        -0.0340
     14 C4        -20.9850   59.7820   -9.1620 C.ar      1 OHT         0.0872
     15 O4        -21.9500   60.5330   -8.5680 O.3       1 OHT        -0.3333
     16 C5        -20.5270   58.5670   -8.5660 C.ar      1 OHT        -0.0340
     17 C6        -19.5250   57.8200   -9.2120 C.ar      1 OHT        -0.0657
     18 C17       -16.6580   58.2410  -11.4070 C.ar      1 OHT        -0.0376
     19 C18       -16.1900   58.4630  -12.7220 C.ar      1 OHT        -0.0657
     20 C19       -15.0890   59.2560  -12.9920 C.ar      1 OHT        -0.0338
     21 C20       -14.3990   59.8720  -11.9330 C.ar      1 OHT         0.0909
     22 O20       -13.3010   60.6840  -12.1380 O.3       1 OHT        -0.3129
     23 C23       -12.6210   61.3250  -11.0490 C.3       1 OHT         0.1102
     24 C24       -11.2720   61.7410  -11.5640 C.3       1 OHT        -0.0039
     25 N24       -11.2860   62.9850  -12.2660 N.4       1 OHT         0.2328
     26 C25       -10.3620   63.9470  -11.6520 C.3       1 OHT        -0.0433
     27 C26       -10.8830   62.7680  -13.6620 C.3       1 OHT        -0.0433
     28 C21       -14.8430   59.6640  -10.5960 C.ar      1 OHT        -0.0338
     29 C22       -15.9390   58.8670  -10.3530 C.ar      1 OHT        -0.0657
     30 H1        -20.2116   53.8381  -10.0441 H         1 OHT         0.0254
     31 H2        -19.1584   55.0110   -9.1830 H         1 OHT         0.0254
     32 H3        -18.4252   53.6675  -10.1234 H         1 OHT         0.0254
     33 H4        -20.0714   55.9645  -11.2570 H         1 OHT         0.0435
     34 H5        -19.3383   54.6210  -12.1974 H         1 OHT         0.0435
     35 H6        -15.8477   54.9422  -10.0006 H         1 OHT         0.0617
     36 H7        -13.9864   53.5307  -10.8480 H         1 OHT         0.0615
     37 H8        -13.8331   52.9542  -13.2547 H         1 OHT         0.0609
     38 H9        -15.5547   53.7909  -14.8326 H         1 OHT         0.0615
     39 H10       -17.4293   55.2074  -14.0135 H         1 OHT         0.0617
     40 H11       -19.0206   59.8243  -11.9758 H         1 OHT         0.0575
     41 H12       -20.7966   61.1668  -10.8395 H         1 OHT         0.0543
     42 H13       -21.6052   61.3977   -8.3789 H         1 OHT         0.2484
     43 H14       -20.9467   58.2247   -7.6270 H         1 OHT         0.0543
     44 H15       -19.1778   56.9000   -8.7557 H         1 OHT         0.0575
     45 H16       -16.7124   57.9952  -13.5486 H         1 OHT         0.0575
     46 H17       -14.7600   59.4017  -14.0146 H         1 OHT         0.0543
     47 H18       -12.5060   60.6240  -10.2092 H         1 OHT         0.0668
     48 H19       -13.1874   62.2070  -10.7155 H         1 OHT         0.0668
     49 H20       -10.9048   60.9607  -12.2468 H         1 OHT         0.0841
     50 H21       -10.5863   61.8322  -10.7087 H         1 OHT         0.0841
     51 H22       -12.2200   63.3634  -12.2423 H         1 OHT         0.2029
     52 H23       -10.3931   64.8936  -12.2115 H         1 OHT         0.0777
     53 H24        -9.3402   63.5405  -11.6758 H         1 OHT         0.0777
     54 H25       -10.6606   64.1277  -10.6088 H         1 OHT         0.0777
     55 H26       -11.5682   62.0483  -14.1338 H         1 OHT         0.0777
     56 H27        -9.8577   62.3706  -13.6901 H         1 OHT         0.0777
     57 H28       -10.9215   63.7225  -14.2074 H         1 OHT         0.0777
     58 H29       -14.3188   60.1325   -9.7709 H         1 OHT         0.0543
     59 H30       -16.2623   58.7128   -9.3299 H         1 OHT         0.0575
@<TRIPOS>BOND
     1    1    2 1  
     2    2    3 1  
     3    3    4 1  
     4    3   10 2  
     5    4    5 ar 
     6    4    9 ar 
     7    5    6 ar 
     8    6    7 ar 
     9    7    8 ar 
    10    8    9 ar 
    11   10   11 1  
    12   10   18 1  
    13   11   12 ar 
    14   11   17 ar 
    15   12   13 ar 
    16   13   14 ar 
    17   14   15 1  
    18   14   16 ar 
    19   16   17 ar 
    20   18   19 ar 
    21   18   29 ar 
    22   19   20 ar 
    23   20   21 ar 
    24   21   22 1  
    25   21   28 ar 
    26   22   23 1  
    27   23   24 1  
    28   24   25 1  
    29   25   26 1  
    30   25   27 1  
    31   28   29 ar 
    32    1   30 1  
    33    1   31 1  
    34    1   32 1  
    35    2   33 1  
    36    2   34 1  
    37    5   35 1  
    38    6   36 1  
    39    7   37 1  
    40    8   38 1  
    41    9   39 1  
    42   12   40 1  
    43   13   41 1  
    44   15   42 1  
    45   16   43 1  
    46   17   44 1  
    47   19   45 1  
    48   20   46 1  
    49   23   47 1  
    50   23   48 1  
    51   24   49 1  
    52   24   50 1  
    53   25   51 1  
    54   26   52 1  
    55   26   53 1  
    56   26   54 1  
    57   27   55 1  
    58   27   56 1  
    59   27   57 1  
    60   28   58 1  
    61   29   59 1  
@<TRIPOS>SUBSTRUCTURE
     1 OHT         1

