### 
### Created by X-TOOL on Mon Sep 10 21:12:52 2018
### 

@<TRIPOS>MOLECULE
1vjy_ligand
   35    38     1     0     0
SMALL
GAST_HUCK


@<TRIPOS>ATOM
      1 C1         10.4350   64.4240    4.9820 C.3       1 460        -0.0159
      2 C2         11.8830   64.6150    4.6530 C.ar      1 460         0.0223
      3 C3         12.4630   63.9310    3.5640 C.ar      1 460        -0.0343
      4 C4         13.8400   64.1450    3.2930 C.ar      1 460        -0.0498
      5 C5         14.6020   65.0260    4.1070 C.ar      1 460        -0.0350
      6 C6         13.9440   65.6800    5.1860 C.ar      1 460         0.0502
      7 N7         12.6020   65.4750    5.4500 N.ar      1 460        -0.2953
      8 C8         14.6390   66.6150    6.0950 C.2       1 460         0.0718
      9 N9         14.4190   66.5460    7.4360 N.2       1 460        -0.1969
     10 N10        15.1840   67.5170    7.9720 N.pl3     1 460        -0.2071
     11 C12        15.8960   68.2180    7.0370 C.2       1 460         0.0742
     12 C13        15.5820   67.6780    5.7960 C.2       1 460         0.0364
     13 C14        16.1650   68.1850    4.5400 C.ar      1 460         0.0391
     14 C15        15.3930   68.3920    3.3680 C.ar      1 460        -0.0266
     15 C16        16.0420   68.8870    2.2080 C.ar      1 460        -0.0228
     16 C17        17.4170   69.1720    2.2040 C.ar      1 460         0.0673
     17 N18        18.0320   69.6550    1.0710 N.ar      1 460        -0.2888
     18 C19        19.3920   69.9150    1.1360 C.ar      1 460         0.0138
     19 C20        20.1620   69.7100    2.2950 C.ar      1 460        -0.0292
     20 C21        19.4980   69.2120    3.4510 C.ar      1 460        -0.0240
     21 C22        18.1180   68.9310    3.4440 C.ar      1 460         0.0606
     22 N23        17.5110   68.4510    4.5760 N.ar      1 460        -0.2974
     23 H1          9.9873   63.7159    4.2691 H         1 460         0.0420
     24 H2          9.9133   65.3901    4.9156 H         1 460         0.0420
     25 H3         10.3404   64.0255    6.0029 H         1 460         0.0420
     26 H4         11.8729   63.2599    2.9505 H         1 460         0.0640
     27 H5         14.3122   63.6342    2.4616 H         1 460         0.0712
     28 H6         15.6547   65.1951    3.9115 H         1 460         0.0651
     29 H7         15.2284   67.7118    8.9824 H         1 460         0.2655
     30 H8         16.5798   69.0435    7.2294 H         1 460         0.1117
     31 H9         14.3306   68.1766    3.3592 H         1 460         0.0706
     32 H10        15.4642   69.0488    1.3052 H         1 460         0.0777
     33 H11        19.8867   70.2952    0.2495 H         1 460         0.0867
     34 H12        21.2246   69.9240    2.3073 H         1 460         0.0720
     35 H13        20.0677   69.0451    4.3580 H         1 460         0.0767
@<TRIPOS>BOND
     1    1    2 1  
     2    2    3 ar 
     3    2    7 ar 
     4    3    4 ar 
     5    4    5 ar 
     6    5    6 ar 
     7    6    7 ar 
     8    6    8 1  
     9    8    9 2  
    10    8   12 1  
    11    9   10 1  
    12   10   11 1  
    13   11   12 2  
    14   12   13 1  
    15   13   14 ar 
    16   13   22 ar 
    17   14   15 ar 
    18   15   16 ar 
    19   16   17 ar 
    20   16   21 ar 
    21   17   18 ar 
    22   18   19 ar 
    23   19   20 ar 
    24   20   21 ar 
    25   21   22 ar 
    26    1   23 1  
    27    1   24 1  
    28    1   25 1  
    29    3   26 1  
    30    4   27 1  
    31    5   28 1  
    32   10   29 1  
    33   11   30 1  
    34   14   31 1  
    35   15   32 1  
    36   18   33 1  
    37   19   34 1  
    38   20   35 1  
@<TRIPOS>SUBSTRUCTURE
     1 460         1

