### 
### Created by X-TOOL on Mon Sep 10 21:12:45 2018
### 

@<TRIPOS>MOLECULE
1vrt_ligand
   34    37     1     0     0
SMALL
GAST_HUCK


@<TRIPOS>ATOM
      1 N1          4.0540  -36.9310   22.2210 N.ar      1 NVP        -0.3059
      2 C2          4.9660  -36.2380   22.9390 C.ar      1 NVP        -0.0267
      3 C3          4.6240  -35.4500   24.0360 C.ar      1 NVP        -0.0598
      4 C4          3.3050  -35.3690   24.4150 C.ar      1 NVP        -0.0147
      5 C4A         2.3460  -36.0770   23.6860 C.ar      1 NVP         0.1203
      6 N5          0.9890  -36.0280   24.1030 N.am      1 NVP        -0.2340
      7 C6         -0.1450  -36.0180   23.4080 C.2       1 NVP         0.2331
      8 C6A        -0.1190  -36.0770   21.8860 C.ar      1 NVP         0.1056
      9 C7         -1.1230  -35.3990   21.1890 C.ar      1 NVP        -0.0327
     10 C8         -1.2960  -35.6300   19.8690 C.ar      1 NVP        -0.0419
     11 C9         -0.4670  -36.5450   19.2400 C.ar      1 NVP         0.0012
     12 N10         0.5220  -37.2120   19.8740 N.ar      1 NVP        -0.2750
     13 C10         0.7040  -36.9790   21.1800 C.ar      1 NVP         0.1557
     14 N11         1.7670  -37.6730   21.8260 N.pl3     1 NVP        -0.2309
     15 C11         2.7540  -36.8570   22.5840 C.ar      1 NVP         0.1549
     16 C12         2.9040  -34.5090   25.6010 C.3       1 NVP        -0.0317
     17 O13        -1.2400  -35.9060   23.9770 O.2       1 NVP        -0.3735
     18 C14         2.3440  -38.7570   21.0360 C.3       1 NVP         0.0595
     19 C15         2.9380  -39.8900   21.8010 C.3       1 NVP        -0.0234
     20 C16         1.6390  -40.0610   21.0880 C.3       1 NVP        -0.0234
     21 H1          6.0087  -36.2980   22.6487 H         1 NVP         0.0624
     22 H2          5.3873  -34.9084   24.5830 H         1 NVP         0.0509
     23 H3          0.8642  -35.9952   25.0946 H         1 NVP         0.2208
     24 H4         -1.7605  -34.6905   21.7055 H         1 NVP         0.0750
     25 H5         -2.0678  -35.1100   19.3132 H         1 NVP         0.0614
     26 H6         -0.6201  -36.7356   18.1839 H         1 NVP         0.0817
     27 H7          3.8001  -34.0402   26.0336 H         1 NVP         0.0379
     28 H8          2.4157  -35.1369   26.3608 H         1 NVP         0.0379
     29 H9          2.2059  -33.7271   25.2676 H         1 NVP         0.0379
     30 H10         2.8006  -38.3834   20.1076 H         1 NVP         0.0606
     31 H11         2.9632  -39.8594   22.9003 H         1 NVP         0.0292
     32 H12         3.8420  -40.3932   21.4273 H         1 NVP         0.0292
     33 H13         1.5845  -40.6926   20.1890 H         1 NVP         0.0292
     34 H14         0.7057  -40.1587   21.6620 H         1 NVP         0.0292
@<TRIPOS>BOND
     1    1   15 ar 
     2    1    2 ar 
     3    2    3 ar 
     4    3    4 ar 
     5    4   16 1  
     6    4    5 ar 
     7    5   15 ar 
     8    5    6 1  
     9    6    7 am 
    10    7   17 2  
    11    7    8 1  
    12    8   13 ar 
    13    8    9 ar 
    14    9   10 ar 
    15   10   11 ar 
    16   11   12 ar 
    17   12   13 ar 
    18   13   14 1  
    19   14   18 1  
    20   14   15 1  
    21   18   20 1  
    22   18   19 1  
    23   19   20 1  
    24    2   21 1  
    25    3   22 1  
    26    6   23 1  
    27    9   24 1  
    28   10   25 1  
    29   11   26 1  
    30   16   27 1  
    31   16   28 1  
    32   16   29 1  
    33   18   30 1  
    34   19   31 1  
    35   19   32 1  
    36   20   33 1  
    37   20   34 1  
@<TRIPOS>SUBSTRUCTURE
     1 NVP         1

