### 
### Created by X-TOOL on Mon Sep 10 21:12:45 2018
### 

@<TRIPOS>MOLECULE
1vru_ligand
   39    40     1     0     0
SMALL
GAST_HUCK


@<TRIPOS>ATOM
      1 C           1.3940  -39.5760   22.0630 C.2       1 AAP         0.2109
      2 CA          1.4470  -38.0900   22.2840 C.3       1 AAP         0.1608
      3 O           0.3870  -40.0320   21.5120 O.2       1 AAP        -0.3916
      4 N           2.4110  -40.3380   22.4690 N.am      1 AAP        -0.2973
      5 C1          0.5470  -37.2830   21.3060 C.ar      1 AAP         0.0288
      6 C2          0.7670  -37.3320   19.9340 C.ar      1 AAP         0.0464
      7 C3         -0.0520  -36.5780   19.0820 C.ar      1 AAP        -0.0539
      8 C4         -1.0760  -35.7550   19.6090 C.ar      1 AAP        -0.0674
      9 C5         -1.2820  -35.7070   20.9710 C.ar      1 AAP        -0.0539
     10 C6         -0.4750  -36.4490   21.8140 C.ar      1 AAP         0.0464
     11 CL2         2.1020  -38.1980   19.2190 Cl        1 AAP        -0.0767
     12 CL6        -0.7520  -36.2920   23.4880 Cl        1 AAP        -0.0767
     13 N'          2.8180  -37.6390   22.2900 N.pl3     1 AAP        -0.2884
     14 C1'         3.3580  -36.6160   23.0490 C.ar      1 AAP         0.0554
     15 C2'         4.6660  -36.1520   22.8150 C.ar      1 AAP         0.0428
     16 C3'         5.1620  -35.1660   23.6300 C.ar      1 AAP        -0.0605
     17 C4'         4.3960  -34.6280   24.6440 C.ar      1 AAP        -0.0672
     18 C5'         3.1160  -35.0700   24.8690 C.ar      1 AAP        -0.0527
     19 C6'         2.5950  -36.0620   24.0690 C.ar      1 AAP        -0.0368
     20 C'          5.5520  -36.6660   21.6550 C.2       1 AAP         0.1169
     21 O'          5.1610  -37.5720   20.9000 O.2       1 AAP        -0.3900
     22 CM'         6.9130  -36.0400   21.3660 C.3       1 AAP         0.0073
     23 CM5         2.2760  -34.4310   25.9850 C.3       1 AAP        -0.0317
     24 H1          1.0463  -37.9054   23.2916 H         1 AAP         0.0960
     25 H2          3.2045  -39.9191   22.9105 H         1 AAP         0.1817
     26 H3          2.3798  -41.3281   22.3318 H         1 AAP         0.1817
     27 H4          0.1003  -36.6257   18.0098 H         1 AAP         0.0607
     28 H5         -1.6959  -35.1647   18.9439 H         1 AAP         0.0562
     29 H6         -2.0738  -35.0898   21.3799 H         1 AAP         0.0607
     30 H7          3.4658  -38.1332   21.6598 H         1 AAP         0.1839
     31 H8          6.1718  -34.8038   23.4749 H         1 AAP         0.0622
     32 H9          4.8103  -33.8465   25.2707 H         1 AAP         0.0465
     33 H10         1.5831  -36.4129   24.2362 H         1 AAP         0.0464
     34 H11         7.3755  -36.5485   20.5072 H         1 AAP         0.0445
     35 H12         7.5610  -36.1477   22.2483 H         1 AAP         0.0445
     36 H13         6.7838  -34.9725   21.1340 H         1 AAP         0.0445
     37 H14         2.8741  -33.6659   26.5017 H         1 AAP         0.0399
     38 H15         1.9715  -35.2057   26.7041 H         1 AAP         0.0399
     39 H16         1.3810  -33.9637   25.5485 H         1 AAP         0.0399
@<TRIPOS>BOND
     1    1    4 am 
     2    1    3 2  
     3    1    2 1  
     4    2   13 1  
     5    2    5 1  
     6    5   10 ar 
     7    5    6 ar 
     8    6   11 1  
     9    6    7 ar 
    10    7    8 ar 
    11    8    9 ar 
    12    9   10 ar 
    13   10   12 1  
    14   13   14 1  
    15   14   19 ar 
    16   14   15 ar 
    17   15   20 1  
    18   15   16 ar 
    19   16   17 ar 
    20   17   18 ar 
    21   18   23 1  
    22   18   19 ar 
    23   20   22 1  
    24   20   21 2  
    25    2   24 1  
    26    4   25 1  
    27    4   26 1  
    28    7   27 1  
    29    8   28 1  
    30    9   29 1  
    31   13   30 1  
    32   16   31 1  
    33   17   32 1  
    34   19   33 1  
    35   22   34 1  
    36   22   35 1  
    37   22   36 1  
    38   23   37 1  
    39   23   38 1  
    40   23   39 1  
@<TRIPOS>SUBSTRUCTURE
     1 AAP         1

