### 
### Created by X-TOOL on Mon Sep 10 21:12:46 2018
### 

@<TRIPOS>MOLECULE
1vwl_ligand
  132   136     1     0     0
SMALL
GAST_HUCK


@<TRIPOS>ATOM
      1 N          32.8650   14.1820  -13.2150 N.am      1 HIS        -0.2644
      2 CA         32.1150   14.4180  -11.9520 C.3       1 HIS         0.1370
      3 C          33.2130   14.8690  -11.0020 C.2       1 HIS         0.2079
      4 O          34.2130   14.1640  -10.9210 O.2       1 HIS        -0.3940
      5 CB         31.4320   13.1080  -11.3810 C.3       1 HIS         0.0145
      6 CG         30.5270   13.5520  -10.1980 C.2       1 HIS        -0.0027
      7 ND1        31.0300   13.8560   -9.0070 N.2       1 HIS        -0.3252
      8 CD2        29.1370   13.7330  -10.2150 C.2       1 HIS         0.0291
      9 CE1        29.9780   14.2200   -8.3150 C.2       1 HIS         0.0907
     10 NE2        28.8720   14.1480   -9.0090 N.pl3     1 HIS        -0.2752
     11 H1         33.2241   13.2755  -13.4369 H         1 HIS         0.1884
     12 H2         31.3525   15.1987  -12.0898 H         1 HIS         0.0817
     13 H3         32.1997   12.4043  -11.0269 H         1 HIS         0.0420
     14 H4         30.8251   12.6263  -12.1618 H         1 HIS         0.0420
     15 H5         28.4447   13.5666  -11.0389 H         1 HIS         0.0729
     16 H6         30.0203   14.5463   -7.2769 H         1 HIS         0.1199
     17 H7         27.9337   14.3837   -8.6556 H         1 HIS         0.2361
     18 N          33.0150   16.0000  -10.3280 N.am      1 PRO        -0.2497
     19 CA         33.9450   16.5280   -9.2710 C.3       1 PRO         0.1338
     20 C          34.3510   15.5430   -8.1420 C.2       1 PRO         0.2041
     21 O          35.1280   15.8900   -7.2660 O.2       1 PRO        -0.3944
     22 CB         33.2360   17.7980   -8.7120 C.3       1 PRO        -0.0104
     23 CG         31.7490   17.5950   -9.0920 C.3       1 PRO        -0.0281
     24 CD         31.8460   16.9520  -10.4880 C.3       1 PRO         0.0369
     25 H8         34.8780   16.8336   -9.7671 H         1 PRO         0.0802
     26 H9         33.6383   18.7084   -9.1802 H         1 PRO         0.0313
     27 H10        33.3551   17.8637   -7.6205 H         1 PRO         0.0313
     28 H11        31.2448   16.9251   -8.3800 H         1 PRO         0.0287
     29 H12        31.2146   18.5556   -9.1331 H         1 PRO         0.0287
     30 H13        30.9231   16.4097  -10.7412 H         1 PRO         0.0524
     31 H14        32.0511   17.7076  -11.2606 H         1 PRO         0.0524
     32 N          33.8230   14.3510   -8.1620 N.am      1 GLN        -0.2636
     33 CA         34.2210   13.4000   -7.0780 C.3       1 GLN         0.1330
     34 C          35.2410   12.4280   -7.6620 C.2       1 GLN         0.2038
     35 O          35.8770   11.7160   -6.9050 O.2       1 GLN        -0.3944
     36 CB         33.0210   12.5790   -6.5760 C.3       1 GLN         0.0045
     37 CG         33.4550   11.8980   -5.2410 C.3       1 GLN         0.0412
     38 CD         32.2400   11.2030   -4.7060 C.2       1 GLN         0.1737
     39 OE1        31.1580   11.7480   -4.7710 O.2       1 GLN        -0.3973
     40 NE2        32.3700   10.0230   -4.1800 N.am      1 GLN        -0.3009
     41 H15        33.1759   14.0824   -8.8756 H         1 GLN         0.1883
     42 H16        34.6618   13.9594   -6.2397 H         1 GLN         0.0801
     43 H17        32.7503   11.8141   -7.3187 H         1 GLN         0.0337
     44 H18        32.1595   13.2398   -6.3994 H         1 GLN         0.0337
     45 H19        33.8066   12.6550   -4.5245 H         1 GLN         0.0504
     46 H20        34.2579   11.1699   -5.4288 H         1 GLN         0.0504
     47 H21        31.5691    9.5457   -3.8184 H         1 GLN         0.1814
     48 H22        33.2711    9.5915   -4.1365 H         1 GLN         0.1814
     49 N          35.3650   12.4310   -8.9600 N.am      1 GLY        -0.2664
     50 CA         36.3240   11.5150   -9.6010 C.3       1 GLY         0.1203
     51 C          37.5950   12.2700   -9.9190 C.2       1 GLY         0.2032
     52 O          37.6670   13.4830   -9.7270 O.2       1 GLY        -0.3945
     53 H23        34.8125   13.0513   -9.5168 H         1 GLY         0.1881
     54 H24        35.8893   11.1183  -10.5303 H         1 GLY         0.0763
     55 H25        36.5512   10.6831   -8.9181 H         1 GLY         0.0763
     56 N          38.5600   11.4940  -10.3990 N.am      1 PRO        -0.2501
     57 CA         39.9210   12.0080  -10.7110 C.3       1 PRO         0.1340
     58 C          39.8400   13.0960  -11.8160 C.2       1 PRO         0.2066
     59 O          38.7760   13.3920  -12.3360 O.2       1 PRO        -0.3942
     60 CB         40.7500   10.7110  -11.1170 C.3       1 PRO        -0.0104
     61 CG         39.6790    9.7110  -11.6510 C.3       1 PRO        -0.0281
     62 CD         38.4480   10.0110  -10.7190 C.3       1 PRO         0.0369
     63 H26        40.3709   12.4611   -9.8153 H         1 PRO         0.0802
     64 H27        41.2699   10.2928  -10.2424 H         1 PRO         0.0313
     65 H28        41.4841   10.9489  -11.9009 H         1 PRO         0.0313
     66 H29        39.4384    9.9104  -12.7057 H         1 PRO         0.0287
     67 H30        40.0167    8.6698  -11.5424 H         1 PRO         0.0287
     68 H31        37.5042    9.7969  -11.2418 H         1 PRO         0.0524
     69 H32        38.5022    9.4102   -9.7991 H         1 PRO         0.0524
     70 N          40.9830   13.6490  -12.1440 N.am      1 PRO        -0.2498
     71 CA         41.0970   14.5530  -13.3130 C.3       1 PRO         0.1338
     72 C          40.6770   13.7210  -14.5380 C.2       1 PRO         0.2041
     73 O          40.5740   12.5090  -14.4700 O.2       1 PRO        -0.3944
     74 CB         42.5740   14.9830  -13.3180 C.3       1 PRO        -0.0104
     75 CG         43.0030   14.7810  -11.8150 C.3       1 PRO        -0.0281
     76 CD         42.2900   13.4780  -11.4370 C.3       1 PRO         0.0369
     77 H33        40.4446   15.4334  -13.2168 H         1 PRO         0.0802
     78 H34        42.6792   16.0350  -13.6218 H         1 PRO         0.0313
     79 H35        43.1696   14.3463  -13.9887 H         1 PRO         0.0313
     80 H36        44.0943   14.6775  -11.7239 H         1 PRO         0.0287
     81 H37        42.6604   15.6176  -11.1883 H         1 PRO         0.0287
     82 H38        42.8363   12.5975  -11.8061 H         1 PRO         0.0524
     83 H39        42.1523   13.3945  -10.3489 H         1 PRO         0.0524
     84 N          40.4630   14.3760  -15.6360 N.am      1 CYS        -0.2629
     85 CA         40.0480   13.6080  -16.8470 C.3       1 CYS         0.1399
     86 C          41.2940   12.9800  -17.4950 C.2       1 CYS         0.2047
     87 O          42.3430   12.9030  -16.8820 O.2       1 CYS        -0.3944
     88 CB         39.3540   14.5890  -17.7930 C.3       1 CYS         0.0341
     89 SG         38.0800   15.6060  -17.0000 S.3       1 CYS        -0.1560
     90 H40        40.5730   15.3693  -15.6709 H         1 CYS         0.1884
     91 H41        39.3458   12.8096  -16.5651 H         1 CYS         0.0808
     92 H42        38.8818   14.0130  -18.6025 H         1 CYS         0.0424
     93 H43        40.1168   15.2590  -18.2164 H         1 CYS         0.0424
     94 N          41.1060   12.5540  -18.7160 N.am      1 LYS        -0.2637
     95 CA         42.2020   11.9200  -19.4990 C.3       1 LYS         0.1306
     96 C          43.3270   12.9430  -19.6290 C.2       1 LYS         0.1992
     97 O          43.1040   14.1350  -19.6150 O.2       1 LYS        -0.3947
     98 CB         41.6610   11.5360  -20.8990 C.3       1 LYS        -0.0122
     99 CG         42.7830   10.9910  -21.8130 C.3       1 LYS        -0.0440
    100 CD         42.2100   10.7190  -23.2290 C.3       1 LYS        -0.0124
    101 CE         43.3650   10.3680  -24.1860 C.3       1 LYS        -0.0354
    102 NZ         42.8330   10.1080  -25.5540 N.4       1 LYS         0.2185
    103 H44        40.2037   12.6564  -19.1347 H         1 LYS         0.1883
    104 H45        42.5689   11.0207  -18.9827 H         1 LYS         0.0800
    105 H46        41.2200   12.4278  -21.3682 H         1 LYS         0.0312
    106 H47        40.8877   10.7623  -20.7830 H         1 LYS         0.0312
    107 H48        43.1774   10.0549  -21.3910 H         1 LYS         0.0269
    108 H49        43.5928   11.7323  -21.8814 H         1 LYS         0.0269
    109 H50        41.6903   11.6171  -23.5940 H         1 LYS         0.0317
    110 H51        41.5018    9.8785  -23.1838 H         1 LYS         0.0317
    111 H52        43.8815    9.4688  -23.8191 H         1 LYS         0.0813
    112 H53        44.0741   11.2081  -24.2246 H         1 LYS         0.0813
    113 H54        43.5950    9.8793  -26.1730 H         1 LYS         0.1994
    114 H55        42.3604   10.9313  -25.8929 H         1 LYS         0.1994
    115 H56        42.1839    9.3375  -25.5213 H         1 LYS         0.1994
    116 N          44.5450   12.5250  -19.7620 N.am      1 NH2        -0.2990
    117 H57        45.2929   13.1832  -19.8483 H         1 NH2         0.1815
    118 H58        44.7380   11.5439  -19.7784 H         1 NH2         0.1815
    119 C1         33.0430   15.1960  -14.0310 C.2       1 LEA         0.1783
    120 O1         32.6020   16.3040  -13.7610 O.2       1 LEA        -0.3969
    121 C2         33.8290   14.9530  -15.3590 C.3       1 LEA         0.0374
    122 C3         35.3690   14.8180  -15.0790 C.3       1 LEA        -0.0353
    123 C4         36.0580   13.8120  -16.0810 C.3       1 LEA        -0.0419
    124 C5         36.6410   14.5410  -17.3100 C.3       1 LEA        -0.0060
    125 H59        33.6591   15.8008  -16.0390 H         1 LEA         0.0502
    126 H60        33.4655   14.0273  -15.8291 H         1 LEA         0.0502
    127 H61        35.5140   14.4531  -14.0515 H         1 LEA         0.0290
    128 H62        35.8391   15.8066  -15.1868 H         1 LEA         0.0290
    129 H63        35.3108   13.0802  -16.4218 H         1 LEA         0.0275
    130 H64        36.8718   13.2886  -15.5577 H         1 LEA         0.0275
    131 H65        35.8449   15.1681  -17.7376 H         1 LEA         0.0376
    132 H66        36.9399   13.7774  -18.0431 H         1 LEA         0.0376
@<TRIPOS>BOND
     1    2    1 1  
     2    2    5 1  
     3    3    2 1  
     4    3    4 2  
     5    5    6 1  
     6    6    7 1  
     7    6    8 2  
     8    8   10 1  
     9   10    9 1  
    10    7    9 2  
    11    1   11 1  
    12    2   12 1  
    13    5   13 1  
    14    5   14 1  
    15    8   15 1  
    16    9   16 1  
    17   10   17 1  
    18   20   19 1  
    19   19   22 1  
    20   19   18 1  
    21   18   24 1  
    22   24   23 1  
    23   22   23 1  
    24   20   21 2  
    25   19   25 1  
    26   22   26 1  
    27   22   27 1  
    28   23   28 1  
    29   23   29 1  
    30   24   30 1  
    31   24   31 1  
    32   18    3 am 
    33   33   32 1  
    34   33   36 1  
    35   34   33 1  
    36   34   35 2  
    37   36   37 1  
    38   37   38 1  
    39   38   40 am 
    40   38   39 2  
    41   32   41 1  
    42   33   42 1  
    43   36   43 1  
    44   36   44 1  
    45   37   45 1  
    46   37   46 1  
    47   40   47 1  
    48   40   48 1  
    49   32   20 am 
    50   50   49 1  
    51   51   50 1  
    52   51   52 2  
    53   49   53 1  
    54   50   54 1  
    55   50   55 1  
    56   49   34 am 
    57   58   57 1  
    58   57   60 1  
    59   57   56 1  
    60   56   62 1  
    61   62   61 1  
    62   60   61 1  
    63   58   59 2  
    64   57   63 1  
    65   60   64 1  
    66   60   65 1  
    67   61   66 1  
    68   61   67 1  
    69   62   68 1  
    70   62   69 1  
    71   56   51 am 
    72   72   71 1  
    73   71   74 1  
    74   71   70 1  
    75   70   76 1  
    76   76   75 1  
    77   74   75 1  
    78   72   73 2  
    79   71   77 1  
    80   74   78 1  
    81   74   79 1  
    82   75   80 1  
    83   75   81 1  
    84   76   82 1  
    85   76   83 1  
    86   70   58 am 
    87   85   84 1  
    88   85   88 1  
    89   86   85 1  
    90   86   87 2  
    91   88   89 1  
    92   84   90 1  
    93   85   91 1  
    94   88   92 1  
    95   88   93 1  
    96   84   72 am 
    97   94   95 1  
    98   95   98 1  
    99   95   96 1  
   100   96   97 2  
   101   98   99 1  
   102   99  100 1  
   103  100  101 1  
   104  101  102 1  
   105   94  103 1  
   106   95  104 1  
   107   98  105 1  
   108   98  106 1  
   109   99  107 1  
   110   99  108 1  
   111  100  109 1  
   112  100  110 1  
   113  101  111 1  
   114  101  112 1  
   115  102  113 1  
   116  102  114 1  
   117  102  115 1  
   118   86   94 am 
   119    1  119 am 
   120   96  116 am 
   121  116  117 1  
   122  116  118 1  
   123  119  120 2  
   124  119  121 1  
   125  121  122 1  
   126  121  125 1  
   127  121  126 1  
   128  122  123 1  
   129  122  127 1  
   130  122  128 1  
   131  123  124 1  
   132  123  129 1  
   133  123  130 1  
   134  124   89 1  
   135  124  131 1  
   136  124  132 1  
@<TRIPOS>SUBSTRUCTURE
     1 HIS         1

