### 
### Created by X-TOOL on Mon Sep 10 21:12:46 2018
### 

@<TRIPOS>MOLECULE
1vwn_ligand
   95    98     1     0     0
SMALL
GAST_HUCK


@<TRIPOS>ATOM
      1 C           7.9710   -0.5070  -19.9300 C.2       1 ACE         0.1752
      2 O           7.4420   -0.4090  -18.8350 O.2       1 ACE        -0.3972
      3 N           9.2120   -0.8750  -20.0760 N.am      1 CYS        -0.2650
      4 CA          9.9750   -1.1680  -18.8420 C.3       1 CYS         0.1406
      5 C          10.1370    0.2380  -18.2380 C.2       1 CYS         0.2049
      6 O          10.0500    1.2110  -18.9660 O.2       1 CYS        -0.3943
      7 CB         11.3270   -1.8060  -19.2040 C.3       1 CYS         0.0443
      8 SG         12.3510   -2.1550  -17.7640 S.3       1 CYS        -0.0882
      9 C1          7.1618   -0.1918  -21.1543 C.3       1 ACE         0.0258
     10 N          10.3690    0.3400  -16.9620 N.am      1 HIS        -0.2619
     11 CA         10.5210    1.6960  -16.3310 C.3       1 HIS         0.1423
     12 C          11.8950    1.7910  -15.6770 C.2       1 HIS         0.2085
     13 O          12.3680    0.8010  -15.1530 O.2       1 HIS        -0.3940
     14 CB          9.3540    1.8420  -15.3000 C.3       1 HIS         0.0427
     15 CG          9.4010    3.0530  -14.3570 C.2       1 HIS         0.0561
     16 ND1        10.2340    3.1080  -13.3440 N.pl3     1 HIS        -0.2623
     17 CD2         8.6150    4.1910  -14.3950 C.2       1 HIS        -0.0276
     18 CE1         9.9580    4.2550  -12.7760 C.2       1 HIS         0.0875
     19 NE2         9.0150    4.8920  -13.3820 N.2       1 HIS        -0.3437
     20 N          12.5000    2.9630  -15.7030 N.am      1 PRO        -0.2497
     21 CA         13.8300    3.1840  -15.1160 C.3       1 PRO         0.1338
     22 C          14.0420    2.6110  -13.7270 C.2       1 PRO         0.2041
     23 O          15.1520    2.2420  -13.3880 O.2       1 PRO        -0.3944
     24 CB         14.0140    4.6970  -15.1860 C.3       1 PRO        -0.0104
     25 CG         12.6060    5.2790  -15.4320 C.3       1 PRO        -0.0281
     26 CD         11.9570    4.2270  -16.3000 C.3       1 PRO         0.0369
     27 N          13.0070    2.5560  -12.9340 N.am      1 GLN        -0.2636
     28 CA         13.1760    2.0000  -11.5650 C.3       1 GLN         0.1330
     29 C          13.7740    0.6110  -11.6740 C.2       1 GLN         0.2042
     30 O          14.4860    0.1510  -10.7960 O.2       1 GLN        -0.3944
     31 CB         11.8090    1.9250  -10.8430 C.3       1 GLN         0.0045
     32 CG         12.0330    1.3320   -9.4220 C.3       1 GLN         0.0412
     33 CD         10.8900    1.6520   -8.4700 C.2       1 GLN         0.1737
     34 OE1        10.3140    2.7010   -8.6170 O.2       1 GLN        -0.3973
     35 NE2        10.5010    0.8640   -7.4990 N.am      1 GLN        -0.3009
     36 N          13.4420    0.0160  -12.7740 N.am      1 PHE        -0.2619
     37 CA         13.9030   -1.3570  -13.0840 C.3       1 PHE         0.1404
     38 C          14.9990   -1.4240  -14.1850 C.2       1 PHE         0.2054
     39 O          15.9970   -2.1000  -13.9900 O.2       1 PHE        -0.3942
     40 CB         12.6040   -2.1590  -13.4580 C.3       1 PHE         0.0214
     41 CG         11.5390   -1.8830  -12.3470 C.ar      1 PHE        -0.0386
     42 CD1        11.6550   -2.4140  -11.0640 C.ar      1 PHE        -0.0601
     43 CD2        10.4540   -1.0620  -12.6120 C.ar      1 PHE        -0.0601
     44 CE1        10.7060   -2.1310  -10.0840 C.ar      1 PHE        -0.0686
     45 CE2         9.5100   -0.7790  -11.6360 C.ar      1 PHE        -0.0686
     46 CZ          9.6280   -1.3030  -10.3700 C.ar      1 PHE        -0.0687
     47 N          14.8500   -0.7510  -15.2910 N.am      1 CYS        -0.2685
     48 CA         15.9110   -0.8310  -16.3590 C.3       1 CYS         0.1041
     49 C          16.7200    0.4470  -16.6850 C.2       1 CYS         0.0609
     50 O          16.2250    1.5540  -16.7610 O.co2     1 CYS        -0.5666
     51 CB         15.2210   -1.3320  -17.6340 C.3       1 CYS         0.0388
     52 SG         13.6080   -0.5890  -17.9830 S.3       1 CYS        -0.0888
     53 O1         17.9593    0.3336  -16.8824 O.co2     1 NH2        -0.5666
     54 H1          9.6302   -0.9559  -20.9807 H         1 CYS         0.1883
     55 H2          9.4194   -1.8334  -18.1648 H         1 CYS         0.0808
     56 H3         11.8741   -1.1166  -19.8639 H         1 CYS         0.0432
     57 H4         11.1375   -2.7500  -19.7360 H         1 CYS         0.0432
     58 H5          7.7843   -0.3295  -22.0507 H         1 ACE         0.0467
     59 H6          6.8143    0.8507  -21.1058 H         1 ACE         0.0467
     60 H7          6.2938   -0.8657  -21.2037 H         1 ACE         0.0467
     61 H8         10.4463   -0.4840  -16.4006 H         1 HIS         0.1885
     62 H9         10.4343    2.4817  -17.0959 H         1 HIS         0.0824
     63 H10         9.3479    0.9362  -14.6759 H         1 HIS         0.0491
     64 H11         8.4146    1.9015  -15.8691 H         1 HIS         0.0491
     65 H12        10.9392    2.4122  -13.0621 H         1 HIS         0.2386
     66 H13         7.8362    4.4408  -15.1140 H         1 HIS         0.0324
     67 H14        10.4684    4.6294  -11.8899 H         1 HIS         0.1149
     68 H15        14.5777    2.7067  -15.7665 H         1 PRO         0.0802
     69 H16        14.6887    4.9633  -16.0130 H         1 PRO         0.0313
     70 H17        14.4260    5.0773  -14.2396 H         1 PRO         0.0313
     71 H18        12.6622    6.2450  -15.9552 H         1 PRO         0.0287
     72 H19        12.0586    5.4055  -14.4863 H         1 PRO         0.0287
     73 H20        12.2574    4.3345  -17.3527 H         1 PRO         0.0524
     74 H21        10.8602    4.2666  -16.2257 H         1 PRO         0.0524
     75 H22        12.1136    2.8828  -13.2423 H         1 GLN         0.1883
     76 H23        13.8538    2.6474  -10.9893 H         1 GLN         0.0801
     77 H24        11.1243    1.2783  -11.4112 H         1 GLN         0.0337
     78 H25        11.3772    2.9333  -10.7604 H         1 GLN         0.0337
     79 H26        12.9634    1.7485   -9.0086 H         1 GLN         0.0504
     80 H27        12.1262    0.2392   -9.5065 H         1 GLN         0.0504
     81 H28         9.7410    1.1357   -6.9086 H         1 GLN         0.1814
     82 H29        10.9639   -0.0094   -7.3480 H         1 GLN         0.1814
     83 H30        12.8598    0.4950  -13.4310 H         1 PHE         0.1885
     84 H31        14.3363   -1.7935  -12.1720 H         1 PHE         0.0823
     85 H32        12.8279   -3.2350  -13.5033 H         1 PHE         0.0474
     86 H33        12.2236   -1.8222  -14.4336 H         1 PHE         0.0474
     87 H34        12.4951   -3.0561  -10.8251 H         1 PHE         0.0557
     88 H35        10.3411   -0.6329  -13.6010 H         1 PHE         0.0557
     89 H36        10.8094   -2.5591   -9.0935 H         1 PHE         0.0599
     90 H37         8.6694   -0.1373  -11.8739 H         1 PHE         0.0599
     91 H38         8.8920   -1.0737   -9.6079 H         1 PHE         0.0559
     92 H39        14.0373   -0.1853  -15.4303 H         1 CYS         0.1876
     93 H40        16.6399   -1.5866  -16.0307 H         1 CYS         0.0734
     94 H41        15.0813   -2.4190  -17.5402 H         1 CYS         0.0425
     95 H42        15.8844   -1.1196  -18.4854 H         1 CYS         0.0425
@<TRIPOS>BOND
     1    1    2 2  
     2    5    4 1  
     3    4    7 1  
     4    4    3 1  
     5    1    9 1  
     6    7    8 1  
     7    5    6 2  
     8   12   11 1  
     9   11   14 1  
    10   11   10 1  
    11   14   15 1  
    12   15   17 2  
    13   15   16 1  
    14   16   18 1  
    15   18   19 2  
    16   17   19 1  
    17   12   13 2  
    18   21   20 1  
    19   21   24 1  
    20   22   21 1  
    21   22   23 2  
    22   24   25 1  
    23   25   26 1  
    24   20   26 1  
    25   29   28 1  
    26   28   31 1  
    27   28   27 1  
    28   31   32 1  
    29   32   33 1  
    30   33   34 2  
    31   33   35 am 
    32   29   30 2  
    33   38   37 1  
    34   37   40 1  
    35   37   36 1  
    36   40   41 1  
    37   41   43 ar 
    38   41   42 ar 
    39   42   44 ar 
    40   44   46 ar 
    41   45   46 ar 
    42   43   45 ar 
    43   38   39 2  
    44   48   49 1  
    45   48   51 1  
    46   47   48 1  
    47   51   52 1  
    48   49   50 ar 
    49    3    1 am 
    50   10    5 am 
    51   20   12 am 
    52   27   22 am 
    53   36   29 am 
    54   38   47 am 
    55    8   52 1  
    56   49   53 ar 
    57    3   54 1  
    58    4   55 1  
    59    7   56 1  
    60    7   57 1  
    61    9   58 1  
    62    9   59 1  
    63    9   60 1  
    64   10   61 1  
    65   11   62 1  
    66   14   63 1  
    67   14   64 1  
    68   16   65 1  
    69   17   66 1  
    70   18   67 1  
    71   21   68 1  
    72   24   69 1  
    73   24   70 1  
    74   25   71 1  
    75   25   72 1  
    76   26   73 1  
    77   26   74 1  
    78   27   75 1  
    79   28   76 1  
    80   31   77 1  
    81   31   78 1  
    82   32   79 1  
    83   32   80 1  
    84   35   81 1  
    85   35   82 1  
    86   36   83 1  
    87   37   84 1  
    88   40   85 1  
    89   40   86 1  
    90   42   87 1  
    91   43   88 1  
    92   44   89 1  
    93   45   90 1  
    94   46   91 1  
    95   47   92 1  
    96   48   93 1  
    97   51   94 1  
    98   51   95 1  
@<TRIPOS>SUBSTRUCTURE
     1 ACE         1

