### 
### Created by X-TOOL on Mon Sep 10 21:12:51 2018
### 

@<TRIPOS>MOLECULE
1vyf_ligand
   53    52     1     0     0
SMALL
GAST_HUCK


@<TRIPOS>ATOM
      1 C1         16.9920   31.2630    6.3800 C.2       1 OLA         0.0348
      2 O1         17.7850   32.1150    6.7500 O.co2     1 OLA        -0.5690
      3 O2         17.0370   30.9660    5.0900 O.co2     1 OLA        -0.5690
      4 C2         16.0230   30.4770    7.2640 C.3       1 OLA         0.0002
      5 C3         15.4320   31.1480    8.5150 C.3       1 OLA        -0.0414
      6 C4         13.8910   30.9830    8.6210 C.3       1 OLA        -0.0515
      7 C5         13.3540   30.2580    9.8630 C.3       1 OLA        -0.0528
      8 C6         11.9490   29.6720    9.6640 C.3       1 OLA        -0.0515
      9 C7         10.7980   30.6320    9.9340 C.3       1 OLA        -0.0464
     10 C8         10.3790   31.4310    8.7030 C.3       1 OLA        -0.0365
     11 C9          8.9180   31.2450    8.3660 C.2       1 OLA        -0.0987
     12 C10         8.3520   31.7600    7.2640 C.2       1 OLA        -0.0987
     13 C11         9.1040   32.5700    6.2270 C.3       1 OLA        -0.0365
     14 C12         8.3200   33.8070    5.7830 C.3       1 OLA        -0.0464
     15 C13         8.8930   34.4630    4.5180 C.3       1 OLA        -0.0515
     16 C14        10.2260   35.1930    4.7200 C.3       1 OLA        -0.0529
     17 C15        11.4490   34.3300    4.3850 C.3       1 OLA        -0.0531
     18 C16        12.7280   34.8900    5.0180 C.3       1 OLA        -0.0533
     19 C17        13.4420   33.8780    5.9210 C.3       1 OLA        -0.0559
     20 C18        14.4360   33.0810    5.1130 C.3       1 OLA        -0.0653
     21 H1         16.5568   29.5775    7.6044 H         1 OLA         0.0430
     22 H2         15.1757   30.1818    6.6277 H         1 OLA         0.0430
     23 H3         15.6681   32.2218    8.4816 H         1 OLA         0.0283
     24 H4         15.8948   30.6983    9.4058 H         1 OLA         0.0283
     25 H5         13.5554   30.4209    7.7371 H         1 OLA         0.0266
     26 H6         13.4472   31.9894    8.6059 H         1 OLA         0.0266
     27 H7         13.3186   30.9740   10.6973 H         1 OLA         0.0265
     28 H8         14.0423   29.4373   10.1131 H         1 OLA         0.0265
     29 H9         11.8404   28.8125   10.3418 H         1 OLA         0.0267
     30 H10        11.8683   29.3297    8.6218 H         1 OLA         0.0267
     31 H11        11.1079   31.3371   10.7193 H         1 OLA         0.0285
     32 H12         9.9326   30.0503   10.2842 H         1 OLA         0.0285
     33 H13        10.9841   31.1019    7.8453 H         1 OLA         0.0388
     34 H14        10.5643   32.4982    8.8945 H         1 OLA         0.0388
     35 H15         8.2964   30.6669    9.0482 H         1 OLA         0.0450
     36 H16         7.2888   31.5856    7.1052 H         1 OLA         0.0450
     37 H17         9.2916   31.9349    5.3487 H         1 OLA         0.0388
     38 H18        10.0633   32.8937    6.6571 H         1 OLA         0.0388
     39 H19         8.3389   34.5446    6.5988 H         1 OLA         0.0285
     40 H20         7.2804   33.5089    5.5822 H         1 OLA         0.0285
     41 H21         8.1569   35.1912    4.1467 H         1 OLA         0.0267
     42 H22         9.0442   33.6771    3.7634 H         1 OLA         0.0267
     43 H23        10.2969   35.5049    5.7724 H         1 OLA         0.0265
     44 H24        10.2385   36.0821    4.0724 H         1 OLA         0.0265
     45 H25        11.5756   34.2996    3.2927 H         1 OLA         0.0265
     46 H26        11.2807   33.3109    4.7632 H         1 OLA         0.0265
     47 H27        12.4640   35.7719    5.6201 H         1 OLA         0.0265
     48 H28        13.4160   35.1881    4.2132 H         1 OLA         0.0265
     49 H29        12.7003   33.1960    6.3623 H         1 OLA         0.0263
     50 H30        13.9703   34.4140    6.7232 H         1 OLA         0.0263
     51 H31        14.9441   32.3573    5.7673 H         1 OLA         0.0230
     52 H32        15.1793   33.7613    4.6718 H         1 OLA         0.0230
     53 H33        13.9093   32.5432    4.3109 H         1 OLA         0.0230
@<TRIPOS>BOND
     1    1    2 ar 
     2    1    3 ar 
     3    1    4 1  
     4    4    5 1  
     5    5    6 1  
     6    6    7 1  
     7    7    8 1  
     8    8    9 1  
     9    9   10 1  
    10   10   11 1  
    11   11   12 2  
    12   12   13 1  
    13   13   14 1  
    14   14   15 1  
    15   15   16 1  
    16   16   17 1  
    17   17   18 1  
    18   18   19 1  
    19   19   20 1  
    20    4   21 1  
    21    4   22 1  
    22    5   23 1  
    23    5   24 1  
    24    6   25 1  
    25    6   26 1  
    26    7   27 1  
    27    7   28 1  
    28    8   29 1  
    29    8   30 1  
    30    9   31 1  
    31    9   32 1  
    32   10   33 1  
    33   10   34 1  
    34   11   35 1  
    35   12   36 1  
    36   13   37 1  
    37   13   38 1  
    38   14   39 1  
    39   14   40 1  
    40   15   41 1  
    41   15   42 1  
    42   16   43 1  
    43   16   44 1  
    44   17   45 1  
    45   17   46 1  
    46   18   47 1  
    47   18   48 1  
    48   19   49 1  
    49   19   50 1  
    50   20   51 1  
    51   20   52 1  
    52   20   53 1  
@<TRIPOS>SUBSTRUCTURE
     1 OLA         1

