### 
### Created by X-TOOL on Mon Sep 10 21:12:52 2018
### 

@<TRIPOS>MOLECULE
1vyg_ligand
   53    52     1     0     0
SMALL
GAST_HUCK


@<TRIPOS>ATOM
      1 C1         17.0340   31.3290    6.3160 C.2       1 ACD         0.0349
      2 C2         16.3860   30.3750    7.2820 C.3       1 ACD         0.0018
      3 C3         15.2910   31.1270    8.0340 C.3       1 ACD        -0.0347
      4 C4         14.1260   30.1760    8.3230 C.3       1 ACD        -0.0345
      5 C5         14.0140   29.8790    9.8140 C.2       1 ACD        -0.0966
      6 C6         12.8630   29.3630   10.2740 C.2       1 ACD        -0.0908
      7 C7         11.7080   29.0650    9.3390 C.3       1 ACD        -0.0199
      8 C8         10.5190   29.6300   10.0190 C.2       1 ACD        -0.0890
      9 C9          9.5660   30.3730    9.4630 C.2       1 ACD        -0.0889
     10 C10         9.4810   30.8020    8.0320 C.3       1 ACD        -0.0195
     11 C11         8.0200   31.1210    7.8520 C.2       1 ACD        -0.0889
     12 C12         7.5120   31.6000    6.7320 C.2       1 ACD        -0.0890
     13 C13         8.3700   31.8860    5.5430 C.3       1 ACD        -0.0199
     14 C14         8.1380   33.3240    5.1070 C.2       1 ACD        -0.0908
     15 C15         9.0190   33.9950    4.3560 C.2       1 ACD        -0.0967
     16 C16        10.3060   33.3720    3.8360 C.3       1 ACD        -0.0360
     17 C17        11.5240   34.0660    4.4230 C.3       1 ACD        -0.0463
     18 C18        11.5070   35.5550    4.0900 C.3       1 ACD        -0.0517
     19 C19        11.4270   36.3440    5.3890 C.3       1 ACD        -0.0558
     20 C20        11.3330   37.8550    5.1650 C.3       1 ACD        -0.0653
     21 O1         17.6710   32.3160    6.6950 O.co2     1 ACD        -0.5690
     22 O2         16.8700   31.0720    5.0250 O.co2     1 ACD        -0.5690
     23 H1         17.1358   29.9995    7.9939 H         1 ACD         0.0432
     24 H2         15.9467   29.5296    6.7322 H         1 ACD         0.0432
     25 H3         14.9349   31.9672    7.4199 H         1 ACD         0.0303
     26 H4         15.6947   31.5112    8.9823 H         1 ACD         0.0303
     27 H5         14.2894   29.2331    7.7806 H         1 ACD         0.0391
     28 H6         13.1901   30.6399    7.9783 H         1 ACD         0.0391
     29 H7         14.8454   30.0800   10.4880 H         1 ACD         0.0458
     30 H8         12.7575   29.1549   11.3377 H         1 ACD         0.0463
     31 H9         11.5943   27.9803    9.1962 H         1 ACD         0.0513
     32 H10        11.8636   29.5490    8.3635 H         1 ACD         0.0513
     33 H11        10.4148   29.4152   11.0815 H         1 ACD         0.0471
     34 H12         8.7623   30.7043   10.1189 H         1 ACD         0.0471
     35 H13         9.7930   29.9905    7.3581 H         1 ACD         0.0515
     36 H14        10.1036   31.6902    7.8492 H         1 ACD         0.0515
     37 H15         7.3472   30.9472    8.6905 H         1 ACD         0.0471
     38 H16         6.4416   31.7914    6.6732 H         1 ACD         0.0471
     39 H17         8.1044   31.2033    4.7224 H         1 ACD         0.0513
     40 H18         9.4283   31.7462    5.8083 H         1 ACD         0.0513
     41 H19         7.2224   33.8256    5.4169 H         1 ACD         0.0463
     42 H20         8.8054   35.0331    4.1059 H         1 ACD         0.0458
     43 H21        10.3330   33.4642    2.7402 H         1 ACD         0.0390
     44 H22        10.3290   32.3083    4.1152 H         1 ACD         0.0390
     45 H23        12.4348   33.6126    4.0049 H         1 ACD         0.0285
     46 H24        11.5201   33.9401    5.5157 H         1 ACD         0.0285
     47 H25        10.6327   35.7843    3.4631 H         1 ACD         0.0267
     48 H26        12.4265   35.8241    3.5495 H         1 ACD         0.0267
     49 H27        12.3281   36.1330    5.9835 H         1 ACD         0.0263
     50 H28        10.5361   36.0158    5.9444 H         1 ACD         0.0263
     51 H29        11.2783   38.3670    6.1370 H         1 ACD         0.0230
     52 H30        10.4306   38.0834    4.5790 H         1 ACD         0.0230
     53 H31        12.2226   38.2007    4.6181 H         1 ACD         0.0230
@<TRIPOS>BOND
     1    1    2 1  
     2    1   21 ar 
     3    1   22 ar 
     4    2    3 1  
     5    3    4 1  
     6    4    5 1  
     7    5    6 2  
     8    6    7 1  
     9    7    8 1  
    10    8    9 2  
    11    9   10 1  
    12   10   11 1  
    13   11   12 2  
    14   12   13 1  
    15   13   14 1  
    16   14   15 2  
    17   15   16 1  
    18   16   17 1  
    19   17   18 1  
    20   18   19 1  
    21   19   20 1  
    22    2   23 1  
    23    2   24 1  
    24    3   25 1  
    25    3   26 1  
    26    4   27 1  
    27    4   28 1  
    28    5   29 1  
    29    6   30 1  
    30    7   31 1  
    31    7   32 1  
    32    8   33 1  
    33    9   34 1  
    34   10   35 1  
    35   10   36 1  
    36   11   37 1  
    37   12   38 1  
    38   13   39 1  
    39   13   40 1  
    40   14   41 1  
    41   15   42 1  
    42   16   43 1  
    43   16   44 1  
    44   17   45 1  
    45   17   46 1  
    46   18   47 1  
    47   18   48 1  
    48   19   49 1  
    49   19   50 1  
    50   20   51 1  
    51   20   52 1  
    52   20   53 1  
@<TRIPOS>SUBSTRUCTURE
     1 ACD         1

