### 
### Created by X-TOOL on Mon Sep 10 21:12:52 2018
### 

@<TRIPOS>MOLECULE
1vyw_ligand
   39    42     1     0     0
SMALL
GAST_HUCK


@<TRIPOS>ATOM
      1 C1        -14.2880  203.6300  112.0780 C.3       1 292        -0.0344
      2 C2        -15.1160  204.8880  111.8320 C.3       1 292        -0.0344
      3 C3        -14.1370  204.3990  110.7650 C.3       1 292         0.0193
      4 C4        -12.8620  205.2490  110.5460 C.2       1 292         0.0595
      5 C5        -11.9040  205.6350  111.4730 C.2       1 292        -0.0272
      6 C6        -10.9660  206.3880  110.7680 C.2       1 292         0.0963
      7 N7        -11.3450  206.4530  109.4490 N.2       1 292        -0.2374
      8 N8        -12.4870  205.7650  109.3270 N.pl3     1 292        -0.2381
      9 N9         -9.7770  207.0220  111.3320 N.am      1 292        -0.2354
     10 C10        -9.2810  207.0700  112.5820 C.2       1 292         0.2114
     11 C11        -7.9730  207.8680  112.7690 C.3       1 292         0.0756
     12 C12        -6.8060  206.9370  113.0810 C.ar      1 292        -0.0231
     13 C13        -5.9760  206.4610  112.0280 C.ar      1 292        -0.0524
     14 C14        -4.9020  205.5870  112.3160 C.ar      1 292        -0.0254
     15 C15        -4.6480  205.1820  113.7330 C.ar      1 292        -0.0220
     16 C16        -5.4940  205.6730  114.7540 C.ar      1 292        -0.0565
     17 C17        -6.5600  206.5420  114.4320 C.ar      1 292        -0.0544
     18 C18        -3.5670  204.3020  114.0230 C.ar      1 292        -0.0566
     19 C19        -4.0550  205.0930  111.2910 C.ar      1 292        -0.0576
     20 C20        -2.9830  204.2160  111.6190 C.ar      1 292        -0.0636
     21 C21        -2.7420  203.8280  112.9670 C.ar      1 292        -0.0633
     22 O22        -9.8080  206.5270  113.5570 O.2       1 292        -0.3839
     23 H1        -14.7750  202.6437  112.0847 H         1 292         0.0295
     24 H2        -13.4754  203.6428  112.8193 H         1 292         0.0295
     25 H3        -14.9002  205.8073  112.3962 H         1 292         0.0295
     26 H4        -16.1998  204.8082  111.6616 H         1 292         0.0295
     27 H5        -14.4898  203.9698  109.8156 H         1 292         0.0507
     28 H6        -11.8881  205.3978  112.5357 H         1 292         0.0204
     29 H7        -13.0091  205.6401  108.4480 H         1 292         0.2428
     30 H8         -9.2253  207.5155  110.6596 H         1 292         0.2206
     31 H9         -8.0997  208.5772  113.6002 H         1 292         0.0665
     32 H10        -7.7541  208.4221  111.8443 H         1 292         0.0665
     33 H11        -6.1666  206.7679  111.0060 H         1 292         0.0536
     34 H12        -5.3244  205.3824  115.7845 H         1 292         0.0620
     35 H13        -7.2015  206.9151  115.2222 H         1 292         0.0589
     36 H14        -3.3740  203.9949  115.0445 H         1 292         0.0619
     37 H15        -4.2238  205.3828  110.2602 H         1 292         0.0604
     38 H16        -2.3412  203.8384  110.8312 H         1 292         0.0612
     39 H17        -1.9173  203.1613  113.1916 H         1 292         0.0599
@<TRIPOS>BOND
     1    1    2 1  
     2    1    3 1  
     3    2    3 1  
     4    3    4 1  
     5    4    5 2  
     6    4    8 1  
     7    5    6 1  
     8    6    7 2  
     9    6    9 1  
    10    7    8 1  
    11    9   10 am 
    12   10   11 1  
    13   10   22 2  
    14   11   12 1  
    15   12   13 ar 
    16   12   17 ar 
    17   13   14 ar 
    18   14   15 ar 
    19   14   19 ar 
    20   15   16 ar 
    21   15   18 ar 
    22   16   17 ar 
    23   18   21 ar 
    24   19   20 ar 
    25   20   21 ar 
    26    1   23 1  
    27    1   24 1  
    28    2   25 1  
    29    2   26 1  
    30    3   27 1  
    31    5   28 1  
    32    8   29 1  
    33    9   30 1  
    34   11   31 1  
    35   11   32 1  
    36   13   33 1  
    37   16   34 1  
    38   17   35 1  
    39   18   36 1  
    40   19   37 1  
    41   20   38 1  
    42   21   39 1  
@<TRIPOS>SUBSTRUCTURE
     1 292         1

