### 
### Created by X-TOOL on Mon Sep 10 21:12:52 2018
### 

@<TRIPOS>MOLECULE
1vyz_ligand
   30    32     1     0     0
SMALL
GAST_HUCK


@<TRIPOS>ATOM
      1 C1         13.3460   45.8330   22.1760 C.2       1 N5B         0.0596
      2 C2         14.6380   45.0460   21.8820 C.3       1 N5B         0.0193
      3 C3         12.6940   45.9870   23.3940 C.2       1 N5B        -0.0272
      4 N4         12.6150   46.5250   21.2280 N.pl3     1 N5B        -0.2380
      5 C5         15.7760   45.2660   22.8960 C.3       1 N5B        -0.0344
      6 C6         15.2540   43.8530   22.5490 C.3       1 N5B        -0.0344
      7 C7         11.5690   46.7760   23.1460 C.2       1 N5B         0.0960
      8 N8         11.5360   47.1000   21.8090 N.2       1 N5B        -0.2372
      9 N9         10.5930   47.1820   24.1540 N.am      1 N5B        -0.2362
     10 C10        10.2410   46.6320   25.3470 C.2       1 N5B         0.2286
     11 C11         9.0630   47.2380   26.1210 C.ar      1 N5B         0.0551
     12 O12        10.8790   45.6680   25.8050 O.2       1 N5B        -0.3750
     13 C13         8.3470   46.3920   27.0380 C.ar      1 N5B        -0.0416
     14 C14         8.6470   48.6130   26.0220 C.ar      1 N5B        -0.0416
     15 C15         7.2720   46.8960   27.8190 C.ar      1 N5B        -0.0562
     16 C16         7.5730   49.1110   26.8040 C.ar      1 N5B        -0.0562
     17 C17         6.8900   48.2510   27.6990 C.ar      1 N5B        -0.0576
     18 H1         14.8281   45.1316   20.8019 H         1 N5B         0.0507
     19 H2         13.0006   45.5733   24.3536 H         1 N5B         0.0204
     20 H3         12.8556   46.5928   20.2288 H         1 N5B         0.2428
     21 H4         15.5646   45.7097   23.8801 H         1 N5B         0.0295
     22 H5         16.7697   45.5902   22.5534 H         1 N5B         0.0295
     23 H6         15.8836   43.1640   21.9668 H         1 N5B         0.0295
     24 H7         14.6784   43.2834   23.2935 H         1 N5B         0.0295
     25 H8         10.0922   48.0168   23.9251 H         1 N5B         0.2201
     26 H9          8.6327   45.3508   27.1351 H         1 N5B         0.0669
     27 H10         9.1627   49.2783   25.3390 H         1 N5B         0.0669
     28 H11         6.7462   46.2422   28.5054 H         1 N5B         0.0629
     29 H12         7.2750   50.1496   26.7167 H         1 N5B         0.0629
     30 H13         6.0698   48.6346   28.2950 H         1 N5B         0.0652
@<TRIPOS>BOND
     1    1    2 1  
     2    1    3 2  
     3    1    4 1  
     4    2    5 1  
     5    2    6 1  
     6    3    7 1  
     7    4    8 1  
     8    5    6 1  
     9    7    8 2  
    10    7    9 am 
    11    9   10 am 
    12   10   11 1  
    13   10   12 2  
    14   11   13 ar 
    15   11   14 ar 
    16   13   15 ar 
    17   14   16 ar 
    18   15   17 ar 
    19   16   17 ar 
    20    2   18 1  
    21    3   19 1  
    22    4   20 1  
    23    5   21 1  
    24    5   22 1  
    25    6   23 1  
    26    6   24 1  
    27    9   25 1  
    28   13   26 1  
    29   14   27 1  
    30   15   28 1  
    31   16   29 1  
    32   17   30 1  
@<TRIPOS>SUBSTRUCTURE
     1 N5B         1

