### 
### Created by X-TOOL on Mon Sep 10 21:12:52 2018
### 

@<TRIPOS>MOLECULE
1vzq_ligand
   59    64     1     0     0
SMALL
GAST_HUCK


@<TRIPOS>ATOM
      1 N1         11.2730   -9.8910   24.4230 N.pl3     1 SHY        -0.2729
      2 C3         11.5310  -10.9910   23.6610 C.cat     1 SHY         0.2318
      3 N2         10.7380  -12.0870   23.8820 N.pl3     1 SHY        -0.2729
      4 C4         12.6280  -11.0420   22.7280 C.ar      1 SHY         0.0188
      5 C9         13.3690   -9.8970   22.4750 C.ar      1 SHY        -0.0632
      6 C8         14.4520   -9.9450   21.5940 C.ar      1 SHY        -0.0548
      7 C7         14.8080  -11.1520   20.9470 C.ar      1 SHY         0.0072
      8 C6         14.0210  -12.2790   21.1820 C.ar      1 SHY        -0.0548
      9 C5         12.9520  -12.2380   22.0500 C.ar      1 SHY        -0.0632
     10 C10        16.0330  -11.1260   20.0470 C.3       1 SHY         0.0363
     11 N11        15.9840  -12.2420   19.0630 N.4       1 SHY         0.2573
     12 C12        15.1070  -11.8710   17.9050 C.3       1 SHY        -0.0028
     13 C13        15.9910  -11.7140   16.6510 C.3       1 SHY         0.1001
     14 C14        17.3470  -11.3690   17.2850 C.3       1 SHY         0.0240
     15 C15        17.3700  -12.2570   18.5040 C.3       1 SHY         0.0067
     16 C16        18.3570  -11.6980   19.5540 C.3       1 SHY         0.1238
     17 C17        19.1540  -12.7910   20.1560 C.2       1 SHY         0.2201
     18 N19        18.5860  -13.2780   21.3270 N.am      1 SHY        -0.1746
     19 C20        17.4670  -12.4790   21.6720 C.2       1 SHY         0.2220
     20 O21        16.7470  -12.7340   22.6270 O.2       1 SHY        -0.3850
     21 C22        17.3990  -11.2870   20.7360 C.3       1 SHY         0.1316
     22 C23        18.9930  -14.4320   22.1400 C.3       1 SHY         0.0850
     23 C24        20.0690  -14.1490   23.1270 C.ar      1 SHY        -0.0358
     24 C32        19.6810  -13.8530   24.4260 C.ar      1 SHY        -0.0778
     25 C31        20.5780  -13.5150   25.4190 C.ar      1 SHY        -0.0477
     26 C30        21.9210  -13.4690   25.0290 C.ar      1 SHY         0.1160
     27 O29        22.9690  -13.1850   25.8140 O.3       1 SHY        -0.2956
     28 C28        24.1320  -13.2920   24.9510 C.3       1 SHY         0.1854
     29 O20        16.1570  -12.9510   15.9450 O.3       1 SHY        -0.3863
     30 O27        23.6860  -13.7380   23.6270 O.3       1 SHY        -0.2927
     31 C26        22.3270  -13.7490   23.7400 C.ar      1 SHY         0.1170
     32 C25        21.4170  -14.1010   22.7560 C.ar      1 SHY        -0.0374
     33 O24        20.1560  -13.3290   19.7070 O.2       1 SHY        -0.3852
     34 H1         11.8361   -9.0371   24.3020 H         1 SHY         0.3180
     35 H2         10.5149   -9.9136   25.1200 H         1 SHY         0.3180
     36 H3         10.8857  -12.9480   23.3363 H         1 SHY         0.3180
     37 H4          9.9945  -12.0496   24.5938 H         1 SHY         0.3180
     38 H5         13.1074   -8.9642   22.9613 H         1 SHY         0.0599
     39 H6         15.0271   -9.0461   21.4036 H         1 SHY         0.0559
     40 H7         14.2551  -13.2061   20.6713 H         1 SHY         0.0559
     41 H8         12.3561  -13.1286   22.2136 H         1 SHY         0.0599
     42 H9         16.0246  -10.1634   19.5147 H         1 SHY         0.1048
     43 H10        15.7085  -13.1156   19.4836 H         1 SHY         0.2058
     44 H11        14.5934  -10.9219   18.1179 H         1 SHY         0.0840
     45 H12        14.3612  -12.6617   17.7363 H         1 SHY         0.0840
     46 H13        15.6166  -10.9277   15.9790 H         1 SHY         0.0649
     47 H14        17.3963  -10.3066   17.5657 H         1 SHY         0.0349
     48 H15        18.1770  -11.6071   16.6036 H         1 SHY         0.0349
     49 H16        17.6627  -13.2804   18.2267 H         1 SHY         0.0883
     50 H17        18.9796  -10.8798   19.1629 H         1 SHY         0.0632
     51 H18        17.7029  -10.3602   21.2447 H         1 SHY         0.0654
     52 H19        19.3497  -15.2206   21.4611 H         1 SHY         0.0718
     53 H20        18.1107  -14.7924   22.6892 H         1 SHY         0.0718
     54 H21        18.6259  -13.8889   24.6719 H         1 SHY         0.0437
     55 H22        20.2630  -13.2995   26.4336 H         1 SHY         0.0493
     56 H23        24.8398  -14.0223   25.3701 H         1 SHY         0.0970
     57 H24        24.6236  -12.3116   24.8667 H         1 SHY         0.0970
     58 H25        15.3338  -13.1954   15.5387 H         1 SHY         0.2100
     59 H26        21.7351  -14.3287   21.7451 H         1 SHY         0.0451
@<TRIPOS>BOND
     1    1    2 ar 
     2    2    3 ar 
     3    2    4 1  
     4    4    5 ar 
     5    4    9 ar 
     6    5    6 ar 
     7    6    7 ar 
     8    7    8 ar 
     9    7   10 1  
    10    8    9 ar 
    11   10   11 1  
    12   10   21 1  
    13   11   12 1  
    14   11   15 1  
    15   12   13 1  
    16   13   14 1  
    17   13   29 1  
    18   14   15 1  
    19   15   16 1  
    20   16   17 1  
    21   16   21 1  
    22   17   18 am 
    23   17   33 2  
    24   18   19 am 
    25   18   22 1  
    26   19   20 2  
    27   19   21 1  
    28   22   23 1  
    29   23   24 ar 
    30   23   32 ar 
    31   24   25 ar 
    32   25   26 ar 
    33   26   27 1  
    34   26   31 ar 
    35   27   28 1  
    36   28   30 1  
    37   30   31 1  
    38   31   32 ar 
    39    1   34 1  
    40    1   35 1  
    41    3   36 1  
    42    3   37 1  
    43    5   38 1  
    44    6   39 1  
    45    8   40 1  
    46    9   41 1  
    47   10   42 1  
    48   11   43 1  
    49   12   44 1  
    50   12   45 1  
    51   13   46 1  
    52   14   47 1  
    53   14   48 1  
    54   15   49 1  
    55   16   50 1  
    56   21   51 1  
    57   22   52 1  
    58   22   53 1  
    59   24   54 1  
    60   25   55 1  
    61   28   56 1  
    62   28   57 1  
    63   29   58 1  
    64   32   59 1  
@<TRIPOS>SUBSTRUCTURE
     1 SHY         1

