### 
### Created by X-TOOL on Mon Sep 10 21:12:52 2018
### 

@<TRIPOS>MOLECULE
1w0x_ligand
   40    42     1     0     0
SMALL
GAST_HUCK


@<TRIPOS>ATOM
      1 N         107.0840  100.2570   81.1410 N.pl3     1 OLO        -0.2304
      2 C         108.0000  100.9480   80.3360 C.2       1 OLO         0.1042
      3 N1        107.4580  101.3740   79.1990 N.2       1 OLO        -0.3043
      4 C3A       106.1350  100.9110   79.2460 C.ar      1 OLO         0.0918
      5 C7A       105.8950  100.2660   80.4270 C.ar      1 OLO         0.1419
      6 C1        105.0440  100.9680   78.3580 C.ar      1 OLO         0.1222
      7 N2        103.9470  100.3120   78.6750 N.ar      1 OLO        -0.2560
      8 C2        103.7070   99.7520   79.8650 C.ar      1 OLO         0.1542
      9 N3        104.6740   99.7320   80.8190 N.ar      1 OLO        -0.2645
     10 C3        107.3030   99.5740   82.4900 C.3       1 OLO         0.0485
     11 N4        102.4930   99.0410   80.0920 N.pl3     1 OLO        -0.2953
     12 C4        101.5880   98.7140   78.9120 C.3       1 OLO         0.0526
     13 C5        100.8840   97.3220   78.7590 C.3       1 OLO         0.0644
     14 O          99.4610   97.6010   78.7240 O.3       1 OLO        -0.3930
     15 N5        105.0290  101.6760   77.2000 N.pl3     1 OLO        -0.2919
     16 C6        104.0080  101.3500   76.1800 C.3       1 OLO         0.0632
     17 C7        101.6240  101.7240   76.5510 C.ar      1 OLO        -0.0584
     18 C8        100.4600  102.5470   76.5070 C.ar      1 OLO        -0.0685
     19 C9        100.6270  103.8740   76.1430 C.ar      1 OLO        -0.0687
     20 C10       101.9520  104.3680   75.8390 C.ar      1 OLO        -0.0685
     21 C11       103.0670  103.5270   75.8960 C.ar      1 OLO        -0.0584
     22 C12       102.8890  102.2430   76.2340 C.ar      1 OLO        -0.0206
     23 H1        109.0400  101.1172   80.6112 H         1 OLO         0.1309
     24 H2        108.3414   99.7322   82.8168 H         1 OLO         0.0576
     25 H3        107.1102   98.4956   82.3906 H         1 OLO         0.0576
     26 H4        106.6152  100.0025   83.2339 H         1 OLO         0.0576
     27 H5        102.2304   98.7512   81.0449 H         1 OLO         0.1845
     28 H6        102.2010   98.8486   78.0087 H         1 OLO         0.0545
     29 H7        100.7840   99.4646   78.9248 H         1 OLO         0.0545
     30 H8        101.1264   96.6740   79.6142 H         1 OLO         0.0577
     31 H9        101.2014   96.8325   77.8265 H         1 OLO         0.0577
     32 H10        98.9818   96.7859   78.6316 H         1 OLO         0.2095
     33 H11       105.7154  102.4260   77.0345 H         1 OLO         0.1883
     34 H12       103.6513  100.3235   76.3504 H         1 OLO         0.0689
     35 H13       104.4681  101.4176   75.1831 H         1 OLO         0.0689
     36 H14       101.5303  100.6817   76.8336 H         1 OLO         0.0557
     37 H15        99.4810  102.1495   76.7492 H         1 OLO         0.0599
     38 H16        99.7709  104.5366   76.0866 H         1 OLO         0.0559
     39 H17       102.0825  105.4079   75.5623 H         1 OLO         0.0599
     40 H18       104.0571  103.9066   75.6709 H         1 OLO         0.0557
@<TRIPOS>BOND
     1    1    2 1  
     2    5    1 1  
     3    1   10 1  
     4    3    2 2  
     5    4    3 1  
     6    4    5 ar 
     7    6    4 ar 
     8    5    9 ar 
     9    6    7 ar 
    10   15    6 1  
    11    7    8 ar 
    12    8    9 ar 
    13    8   11 1  
    14   11   12 1  
    15   12   13 1  
    16   13   14 1  
    17   16   15 1  
    18   22   16 1  
    19   17   18 ar 
    20   17   22 ar 
    21   18   19 ar 
    22   19   20 ar 
    23   20   21 ar 
    24   21   22 ar 
    25    2   23 1  
    26   10   24 1  
    27   10   25 1  
    28   10   26 1  
    29   11   27 1  
    30   12   28 1  
    31   12   29 1  
    32   13   30 1  
    33   13   31 1  
    34   14   32 1  
    35   15   33 1  
    36   16   34 1  
    37   16   35 1  
    38   17   36 1  
    39   18   37 1  
    40   19   38 1  
    41   20   39 1  
    42   21   40 1  
@<TRIPOS>SUBSTRUCTURE
     1 OLO         1

