### 
### Created by X-TOOL on Mon Sep 10 21:12:52 2018
### 

@<TRIPOS>MOLECULE
1w0y_ligand
   59    61     1     0     0
SMALL
GAST_HUCK


@<TRIPOS>ATOM
      1 C1         29.8940    6.6810   15.0960 C.cat     1 771         0.2283
      2 N1         29.3940    7.6860   15.8290 N.pl3     1 771        -0.2736
      3 N2         30.2260    5.5920   15.8250 N.pl3     1 771        -0.2736
      4 C2         30.2090    6.9370   13.6710 C.ar      1 771         0.0122
      5 C3         29.4770    7.9530   12.9940 C.ar      1 771        -0.0685
      6 C4         29.6280    8.1420   11.6330 C.ar      1 771        -0.0444
      7 C5         30.5090    7.3190   10.9230 C.ar      1 771         0.0390
      8 N3         30.7790    7.5770    9.5560 N.pl3     1 771        -0.3158
      9 C8         31.7020    6.6900    8.7660 C.3       1 771         0.0455
     10 C15        38.1770    7.7270    9.5410 C.3       1 771         0.1000
     11 C16        38.4750    6.9510   10.7710 C.ar      1 771        -0.0135
     12 C17        37.7260    7.0730   11.9080 C.ar      1 771        -0.0578
     13 C18        38.0040    6.3000   13.0250 C.ar      1 771        -0.0685
     14 C19        39.0420    5.3970   13.0020 C.ar      1 771        -0.0687
     15 C21        39.5050    6.0500   10.7570 C.ar      1 771        -0.0578
     16 C20        39.7920    5.2820   11.8540 C.ar      1 771        -0.0685
     17 C9         33.1490    7.1280    8.8990 C.ar      1 771        -0.0229
     18 C13        35.4970    6.6340    9.4050 C.ar      1 771        -0.0307
     19 C14        34.2010    6.2070    9.1790 C.ar      1 771         0.0470
     20 N4         33.9440    4.8440    9.3400 N.am      1 771        -0.2036
     21 S1         33.7020    3.8520    7.9700 S.o2      1 771         0.0540
     22 C22        35.3440    3.5370    7.3820 C.3       1 771         0.0781
     23 O5         32.9530    4.5850    6.9730 O.2       1 771        -0.1508
     24 O4         33.1670    2.5920    8.3100 O.2       1 771        -0.1508
     25 C12        35.7830    8.0010    9.3180 C.ar      1 771         0.1007
     26 O3         37.0110    8.5270    9.6310 O.3       1 771        -0.3176
     27 C10        33.4640    8.5070    8.7960 C.ar      1 771        -0.0522
     28 C11        34.7970    8.9390    8.9920 C.ar      1 771         0.0959
     29 O2         35.2390   10.2440    8.7780 O.3       1 771        -0.3375
     30 C23        34.3570   11.2760    8.3370 C.3       1 771         0.0531
     31 C6         31.2490    6.3180   11.5960 C.ar      1 771        -0.0444
     32 C7         31.1120    6.1260   12.9430 C.ar      1 771        -0.0685
     33 H1         29.1083    8.5639   15.3723 H         1 771         0.3179
     34 H2         29.2956    7.5802   16.8488 H         1 771         0.3179
     35 H3         30.6198    4.7615   15.3601 H         1 771         0.3179
     36 H4         30.0852    5.5928   16.8453 H         1 771         0.3179
     37 H5         28.7946    8.5846   13.5511 H         1 771         0.0582
     38 H6         29.0705    8.9186   11.1219 H         1 771         0.0515
     39 H7         30.3360    8.3850    9.0958 H         1 771         0.1775
     40 H8         31.4134    6.7294    7.7053 H         1 771         0.0619
     41 H9         31.6065    5.6578    9.1340 H         1 771         0.0619
     42 H10        38.0472    7.0194    8.7089 H         1 771         0.0771
     43 H11        39.0328    8.3858    9.3321 H         1 771         0.0771
     44 H12        36.9061    7.7815   11.9367 H         1 771         0.0557
     45 H13        37.4014    6.4074   13.9197 H         1 771         0.0599
     46 H14        39.2645    4.7883   13.8709 H         1 771         0.0559
     47 H15        40.1050    5.9422    9.8607 H         1 771         0.0557
     48 H16        40.6159    4.5785   11.8177 H         1 771         0.0599
     49 H17        36.2780    5.9217    9.6455 H         1 771         0.0358
     50 H18        33.9016    4.4483   10.2574 H         1 771         0.2089
     51 H19        35.2970    2.8971    6.4885 H         1 771         0.0487
     52 H20        35.9234    3.0288    8.1669 H         1 771         0.0487
     53 H21        35.8307    4.4895    7.1256 H         1 771         0.0487
     54 H22        32.6866    9.2272    8.5680 H         1 771         0.0412
     55 H23        34.9163   12.2178    8.2356 H         1 771         0.0567
     56 H24        33.5491   11.4067    9.0719 H         1 771         0.0567
     57 H25        33.9260   10.9989    7.3636 H         1 771         0.0567
     58 H26        31.9351    5.6937   11.0351 H         1 771         0.0515
     59 H27        31.6893    5.3602   13.4482 H         1 771         0.0582
@<TRIPOS>BOND
     1    1    2 ar 
     2    1    3 ar 
     3    4    1 1  
     4    5    4 ar 
     5    4   32 ar 
     6    6    5 ar 
     7    7    6 ar 
     8    8    7 1  
     9    7   31 ar 
    10    9    8 1  
    11   17    9 1  
    12   10   11 1  
    13   26   10 1  
    14   11   12 ar 
    15   11   15 ar 
    16   12   13 ar 
    17   13   14 ar 
    18   16   14 ar 
    19   15   16 ar 
    20   19   17 ar 
    21   17   27 ar 
    22   18   19 ar 
    23   25   18 ar 
    24   19   20 1  
    25   20   21 am 
    26   21   22 1  
    27   21   23 2  
    28   21   24 2  
    29   25   26 1  
    30   25   28 ar 
    31   27   28 ar 
    32   28   29 1  
    33   29   30 1  
    34   31   32 ar 
    35    2   33 1  
    36    2   34 1  
    37    3   35 1  
    38    3   36 1  
    39    5   37 1  
    40    6   38 1  
    41    8   39 1  
    42    9   40 1  
    43    9   41 1  
    44   10   42 1  
    45   10   43 1  
    46   12   44 1  
    47   13   45 1  
    48   14   46 1  
    49   15   47 1  
    50   16   48 1  
    51   18   49 1  
    52   20   50 1  
    53   22   51 1  
    54   22   52 1  
    55   22   53 1  
    56   27   54 1  
    57   30   55 1  
    58   30   56 1  
    59   30   57 1  
    60   31   58 1  
    61   32   59 1  
@<TRIPOS>SUBSTRUCTURE
     1 771         1

