### 
### Created by X-TOOL on Mon Sep 10 21:12:58 2018
### 

@<TRIPOS>MOLECULE
1w0z_ligand
   59    59     1     0     0
SMALL
GAST_HUCK


@<TRIPOS>ATOM
      1 N4         34.3950    4.7700   27.3880 N.pl3     1 SI1        -0.2729
      2 N5         33.1770    2.9530   27.8990 N.pl3     1 SI1        -0.2729
      3 C18        33.1870    4.2980   27.7840 C.cat     1 SI1         0.2318
      4 C14        32.0490    5.0940   28.0620 C.ar      1 SI1         0.0188
      5 C13        32.0740    6.4990   27.8890 C.ar      1 SI1        -0.0633
      6 C12        30.9720    7.3020   28.2420 C.ar      1 SI1        -0.0584
      7 C17        29.7680    6.7210   28.6810 C.ar      1 SI1        -0.0210
      8 C16        29.7170    5.3210   28.8170 C.ar      1 SI1        -0.0584
      9 C15        30.8440    4.5270   28.5260 C.ar      1 SI1        -0.0633
     10 C11        28.5850    7.5630   28.9930 C.3       1 SI1         0.0645
     11 N3         28.7810    8.3350   30.1590 N.am      1 SI1        -0.2737
     12 C10        29.0710    9.6110   30.1330 C.2       1 SI1         0.2032
     13 O5         29.2390   10.2050   29.0590 O.2       1 SI1        -0.3944
     14 C8         29.2050   10.3700   31.3810 C.3       1 SI1         0.1282
     15 N2         30.3020   11.2630   31.3040 N.am      1 SI1        -0.2643
     16 C7         31.5700   10.9280   31.1760 C.2       1 SI1         0.2023
     17 O4         31.8750    9.7340   31.0790 O.2       1 SI1        -0.3948
     18 C5         32.6660   11.9060   31.1340 C.3       1 SI1         0.1489
     19 C6         33.4010   12.1040   32.4900 C.3       1 SI1         0.0808
     20 O3         32.4930   12.1230   33.5950 O.3       1 SI1        -0.3907
     21 N1         33.7980   11.5600   30.2380 N.am      1 SI1        -0.2276
     22 S1         33.7560   12.1400   28.6580 S.o2      1 SI1         0.0413
     23 O2         33.3650   13.6380   28.6020 O.2       1 SI1        -0.1554
     24 O1         35.1840   11.8500   28.1110 O.2       1 SI1        -0.1554
     25 C1         32.6150   11.1430   27.7700 C.3       1 SI1         0.0846
     26 C4         32.4750   11.4000   26.2510 C.3       1 SI1        -0.0321
     27 C3         31.4570   10.3930   25.6520 C.3       1 SI1        -0.0544
     28 C2         31.3430   10.6000   24.1210 C.3       1 SI1        -0.0652
     29 C9         27.9160   11.1980   31.6240 C.3       1 SI1        -0.0244
     30 H1         34.5362    5.7825   27.2620 H         1 SI1         0.3180
     31 H2         35.1714    4.1161   27.2132 H         1 SI1         0.3180
     32 H3         32.3175    2.4677   28.1932 H         1 SI1         0.3180
     33 H4         34.0289    2.4121   27.6925 H         1 SI1         0.3180
     34 H5         32.9604    6.9668   27.4760 H         1 SI1         0.0599
     35 H6         31.0524    8.3809   28.1746 H         1 SI1         0.0557
     36 H7         28.8000    4.8481   29.1495 H         1 SI1         0.0557
     37 H8         30.7833    3.4533   28.6622 H         1 SI1         0.0599
     38 H9         27.7126    6.9096   29.1416 H         1 SI1         0.0683
     39 H10        28.3966    8.2394   28.1462 H         1 SI1         0.0683
     40 H11        28.6940    7.8849   31.0477 H         1 SI1         0.1878
     41 H12        29.3592    9.6708   32.2161 H         1 SI1         0.0797
     42 H13        30.0945   12.2401   31.3513 H         1 SI1         0.1883
     43 H14        32.2266   12.8614   30.8113 H         1 SI1         0.0777
     44 H15        33.9461   13.0590   32.4621 H         1 SI1         0.0602
     45 H16        34.1143   11.2786   32.6310 H         1 SI1         0.0602
     46 H17        32.9799   12.2455   34.4015 H         1 SI1         0.2097
     47 H18        34.5608   11.0006   30.5624 H         1 SI1         0.1703
     48 H19        31.6238   11.2935   28.2225 H         1 SI1         0.0518
     49 H20        32.9222   10.0948   27.9001 H         1 SI1         0.0518
     50 H21        33.4525   11.2676   25.7643 H         1 SI1         0.0281
     51 H22        32.1180   12.4269   26.0834 H         1 SI1         0.0281
     52 H23        30.4720   10.5521   26.1151 H         1 SI1         0.0263
     53 H24        31.7968    9.3669   25.8562 H         1 SI1         0.0263
     54 H25        30.6198    9.8821   23.7068 H         1 SI1         0.0230
     55 H26        32.3265   10.4398   23.6551 H         1 SI1         0.0230
     56 H27        31.0017   11.6250   23.9140 H         1 SI1         0.0230
     57 H28        27.0515   10.5207   31.6868 H         1 SI1         0.0277
     58 H29        27.7702   11.9023   30.7917 H         1 SI1         0.0277
     59 H30        28.0121   11.7581   32.5658 H         1 SI1         0.0277
@<TRIPOS>BOND
     1    1    3 ar 
     2    3    2 ar 
     3    3    4 1  
     4    4    5 ar 
     5    4    9 ar 
     6    5    6 ar 
     7    6    7 ar 
     8    7    8 ar 
     9    7   10 1  
    10    8    9 ar 
    11   10   11 1  
    12   11   12 am 
    13   12   13 2  
    14   12   14 1  
    15   14   15 1  
    16   14   29 1  
    17   15   16 am 
    18   16   17 2  
    19   16   18 1  
    20   18   19 1  
    21   18   21 1  
    22   19   20 1  
    23   21   22 am 
    24   22   23 2  
    25   22   24 2  
    26   22   25 1  
    27   25   26 1  
    28   26   27 1  
    29   27   28 1  
    30    1   30 1  
    31    1   31 1  
    32    2   32 1  
    33    2   33 1  
    34    5   34 1  
    35    6   35 1  
    36    8   36 1  
    37    9   37 1  
    38   10   38 1  
    39   10   39 1  
    40   11   40 1  
    41   14   41 1  
    42   15   42 1  
    43   18   43 1  
    44   19   44 1  
    45   19   45 1  
    46   20   46 1  
    47   21   47 1  
    48   25   48 1  
    49   25   49 1  
    50   26   50 1  
    51   26   51 1  
    52   27   52 1  
    53   27   53 1  
    54   28   54 1  
    55   28   55 1  
    56   28   56 1  
    57   29   57 1  
    58   29   58 1  
    59   29   59 1  
@<TRIPOS>SUBSTRUCTURE
     1 SI1         1

