### 
### Created by X-TOOL on Mon Sep 10 21:12:57 2018
### 

@<TRIPOS>MOLECULE
1w10_ligand
   62    61     1     0     0
SMALL
GAST_HUCK


@<TRIPOS>ATOM
      1 N1         34.0800    4.8240   27.4120 N.pl3     1 SJ1        -0.2849
      2 C2         32.8460    4.4350   27.7720 C.cat     1 SJ1         0.2882
      3 N2         32.6280    3.1070   27.9330 N.pl3     1 SJ1        -0.2849
      4 N3         31.9280    5.3870   27.9520 N.pl3     1 SJ1        -0.2723
      5 C3         30.6340    5.0910   28.3970 C.3       1 SJ1         0.0627
      6 C4         29.8170    6.4040   28.3990 C.3       1 SJ1        -0.0155
      7 C5         28.3350    6.1510   28.7610 C.3       1 SJ1        -0.0105
      8 C6         27.6410    7.5130   28.9680 C.3       1 SJ1         0.1129
      9 C7         26.1840    7.4370   29.0710 C.2       1 SJ1         0.1245
     10 O1         25.4310    8.3590   29.4320 O.2       1 SJ1        -0.3725
     11 N4         28.1330    8.1590   30.1550 N.am      1 SJ1        -0.2650
     12 C8         28.4260    9.4420   30.1350 C.2       1 SJ1         0.2037
     13 O2         28.3660   10.1580   29.1010 O.2       1 SJ1        -0.3944
     14 C9         28.8520   10.0870   31.3850 C.3       1 SJ1         0.1282
     15 C10        27.6270   10.8700   31.9120 C.3       1 SJ1        -0.0244
     16 N5         29.8930   11.0170   31.1460 N.am      1 SJ1        -0.2639
     17 C11        31.1120   10.7280   30.7190 C.2       1 SJ1         0.2061
     18 O3         31.4080    9.5520   30.4560 O.2       1 SJ1        -0.3943
     19 C12        32.1030   11.7930   30.5570 C.3       1 SJ1         0.1556
     20 C13        32.8280   12.1470   31.8800 C.3       1 SJ1         0.0843
     21 O4         33.4680   10.9340   32.3030 O.3       1 SJ1        -0.3903
     22 N6         33.0810   11.3930   29.6090 N.am      1 SJ1        -0.2389
     23 C14        33.1830   11.8550   28.3880 C.2       1 SJ1         0.3219
     24 O5         34.1030   11.4360   27.6680 O.2       1 SJ1        -0.3774
     25 O6         32.3870   12.7000   27.9110 O.3       1 SJ1        -0.2636
     26 C15        32.5690   13.7200   27.0490 C.3       1 SJ1         0.0796
     27 C16        31.4140   13.7480   26.0070 C.3       1 SJ1        -0.0189
     28 C17        31.8850   12.8950   24.7950 C.3       1 SJ1        -0.0603
     29 C18        31.1320   15.1910   25.5150 C.3       1 SJ1        -0.0603
     30 H1         34.8184    4.1216   27.2627 H         1 SJ1         0.2615
     31 H2         34.2880    5.8248   27.2852 H         1 SJ1         0.2615
     32 H3         31.6953    2.7679   28.2086 H         1 SJ1         0.2615
     33 H4         33.3951    2.4369   27.7798 H         1 SJ1         0.2615
     34 H5         32.1786    6.3670   27.7581 H         1 SJ1         0.2642
     35 H6         30.6752    4.6755   29.4147 H         1 SJ1         0.0689
     36 H7         30.1649    4.3606   27.7214 H         1 SJ1         0.0689
     37 H8         29.8677    6.8576   27.3982 H         1 SJ1         0.0301
     38 H9         30.2520    7.0941   29.1369 H         1 SJ1         0.0301
     39 H10        28.2751    5.5598   29.6867 H         1 SJ1         0.0314
     40 H11        27.8419    5.6040   27.9440 H         1 SJ1         0.0314
     41 H12        27.8861    8.1412   28.0990 H         1 SJ1         0.0790
     42 H13        25.7169    6.4890   28.8083 H         1 SJ1         0.1373
     43 H14        28.2527    7.6326   30.9968 H         1 SJ1         0.1884
     44 H15        29.1804    9.3312   32.1137 H         1 SJ1         0.0797
     45 H16        27.8918   11.3755   32.8524 H         1 SJ1         0.0277
     46 H17        26.7958   10.1725   32.0922 H         1 SJ1         0.0277
     47 H18        27.3221   11.6190   31.1664 H         1 SJ1         0.0277
     48 H19        29.6881   11.9810   31.3155 H         1 SJ1         0.1883
     49 H20        31.5872   12.6920   30.1884 H         1 SJ1         0.0823
     50 H21        32.1043   12.4838   32.6368 H         1 SJ1         0.0606
     51 H22        33.5748   12.9365   31.7098 H         1 SJ1         0.0606
     52 H23        33.9330   11.0897   33.1166 H         1 SJ1         0.2097
     53 H24        33.7453   10.7031   29.8967 H         1 SJ1         0.1900
     54 H25        33.5280   13.5887   26.5264 H         1 SJ1         0.0614
     55 H26        32.5812   14.6691   27.6049 H         1 SJ1         0.0614
     56 H27        30.5000   13.3225   26.4471 H         1 SJ1         0.0321
     57 H28        31.0980   12.8840   24.0265 H         1 SJ1         0.0233
     58 H29        32.0874   11.8661   25.1273 H         1 SJ1         0.0233
     59 H30        32.8026   13.3315   24.3739 H         1 SJ1         0.0233
     60 H31        30.7973   15.8082   26.3618 H         1 SJ1         0.0233
     61 H32        30.3472   15.1689   24.7446 H         1 SJ1         0.0233
     62 H33        32.0514   15.6197   25.0897 H         1 SJ1         0.0233
@<TRIPOS>BOND
     1    1    2 ar 
     2    2    3 ar 
     3    2    4 ar 
     4    4    5 1  
     5    5    6 1  
     6    6    7 1  
     7    7    8 1  
     8    8    9 1  
     9    8   11 1  
    10    9   10 2  
    11   11   12 am 
    12   12   13 2  
    13   12   14 1  
    14   14   15 1  
    15   14   16 1  
    16   16   17 am 
    17   17   18 2  
    18   17   19 1  
    19   19   20 1  
    20   19   22 1  
    21   20   21 1  
    22   22   23 am 
    23   23   24 2  
    24   23   25 1  
    25   25   26 1  
    26   26   27 1  
    27   27   28 1  
    28   27   29 1  
    29    1   30 1  
    30    1   31 1  
    31    3   32 1  
    32    3   33 1  
    33    4   34 1  
    34    5   35 1  
    35    5   36 1  
    36    6   37 1  
    37    6   38 1  
    38    7   39 1  
    39    7   40 1  
    40    8   41 1  
    41    9   42 1  
    42   11   43 1  
    43   14   44 1  
    44   15   45 1  
    45   15   46 1  
    46   15   47 1  
    47   16   48 1  
    48   19   49 1  
    49   20   50 1  
    50   20   51 1  
    51   21   52 1  
    52   22   53 1  
    53   26   54 1  
    54   26   55 1  
    55   27   56 1  
    56   28   57 1  
    57   28   58 1  
    58   28   59 1  
    59   29   60 1  
    60   29   61 1  
    61   29   62 1  
@<TRIPOS>SUBSTRUCTURE
     1 SJ1         1

