### 
### Created by X-TOOL on Mon Sep 10 21:12:58 2018
### 

@<TRIPOS>MOLECULE
1w11_ligand
   60    61     1     0     0
SMALL
GAST_HUCK


@<TRIPOS>ATOM
      1 N3         28.4620    8.1490   29.6750 N.am      1 SK1        -0.2737
      2 N5         34.2760    4.7210   26.7910 N.pl3     1 SK1        -0.2729
      3 C18        33.1130    4.2970   27.3250 C.cat     1 SK1         0.2318
      4 N4         33.0430    2.9720   27.5180 N.pl3     1 SK1        -0.2729
      5 C14        32.0250    5.1160   27.6680 C.ar      1 SK1         0.0188
      6 C13        31.9470    6.4710   27.3000 C.ar      1 SK1        -0.0633
      7 C12        30.7480    7.1680   27.5350 C.ar      1 SK1        -0.0584
      8 C17        29.6660    6.5930   28.2340 C.ar      1 SK1        -0.0210
      9 C16        29.8080    5.2800   28.6940 C.ar      1 SK1        -0.0584
     10 C15        30.9620    4.5500   28.4020 C.ar      1 SK1        -0.0633
     11 C11        28.3800    7.3430   28.4950 C.3       1 SK1         0.0645
     12 C10        28.8020    9.4820   29.6000 C.2       1 SK1         0.2032
     13 O5         29.0000   10.0970   28.5810 O.2       1 SK1        -0.3944
     14 C8         28.9360   10.1550   30.9410 C.3       1 SK1         0.1282
     15 N2         29.9270   11.1780   30.9750 N.am      1 SK1        -0.2643
     16 C7         31.2390   10.8040   30.7810 C.2       1 SK1         0.2023
     17 O4         31.5510    9.6390   30.6300 O.2       1 SK1        -0.3948
     18 C5         32.2790   11.9060   30.7370 C.3       1 SK1         0.1490
     19 C6         33.0280   12.0850   32.0660 C.3       1 SK1         0.0809
     20 O3         32.0730   12.0210   33.0980 O.3       1 SK1        -0.3907
     21 N1         33.3060   11.6510   29.7850 N.am      1 SK1        -0.2258
     22 S1         33.2070   11.7830   28.1520 S.o2      1 SK1         0.0511
     23 O1         34.5830   11.5010   27.7120 O.2       1 SK1        -0.1532
     24 O2         32.7600   13.1350   27.9210 O.2       1 SK1        -0.1532
     25 C1         31.9210   10.6550   27.5940 C.3       1 SK1         0.1181
     26 C4         31.8740   10.9070   26.1030 C.ar      1 SK1        -0.0204
     27 C19        32.5730   10.0880   25.2100 C.ar      1 SK1        -0.0587
     28 C20        32.6790   10.5110   23.8830 C.ar      1 SK1        -0.0685
     29 C21        32.1010   11.7150   23.4590 C.ar      1 SK1        -0.0687
     30 C2         31.3260   12.4830   24.3410 C.ar      1 SK1        -0.0685
     31 C3         31.1300   12.0100   25.6470 C.ar      1 SK1        -0.0587
     32 C22        27.6060   10.7720   31.3850 C.3       1 SK1        -0.0244
     33 H1         28.2698    7.7387   30.5665 H         1 SK1         0.1878
     34 H2         34.4226    5.7236   26.6062 H         1 SK1         0.3180
     35 H3         35.0179    4.0423   26.5678 H         1 SK1         0.3180
     36 H4         32.1924    2.5546   27.9219 H         1 SK1         0.3180
     37 H5         33.8399    2.3715   27.2624 H         1 SK1         0.3180
     38 H6         32.7949    6.9690   26.8438 H         1 SK1         0.0599
     39 H7         30.6521    8.1827   27.1660 H         1 SK1         0.0557
     40 H8         29.0175    4.8262   29.2807 H         1 SK1         0.0557
     41 H9         31.0426    3.5256   28.7471 H         1 SK1         0.0599
     42 H10        28.1669    7.9936   27.6341 H         1 SK1         0.0683
     43 H11        27.5631    6.6165   28.6167 H         1 SK1         0.0683
     44 H12        29.2220    9.3814   31.6688 H         1 SK1         0.0797
     45 H13        29.6792   12.1337   31.1340 H         1 SK1         0.1883
     46 H14        31.7641   12.8433   30.4793 H         1 SK1         0.0777
     47 H15        33.5357   13.0607   32.0833 H         1 SK1         0.0602
     48 H16        33.7705   11.2830   32.1904 H         1 SK1         0.0602
     49 H17        32.5067   12.1288   33.9364 H         1 SK1         0.2097
     50 H18        34.1884   11.3580   30.1531 H         1 SK1         0.1704
     51 H19        30.9557   10.8908   28.0658 H         1 SK1         0.0682
     52 H20        32.1895    9.6105   27.8105 H         1 SK1         0.0682
     53 H21        33.0180    9.1553   25.5372 H         1 SK1         0.0557
     54 H22        33.2173    9.8977   23.1694 H         1 SK1         0.0599
     55 H23        32.2539   12.0558   22.4414 H         1 SK1         0.0559
     56 H24        30.8882   13.4214   24.0203 H         1 SK1         0.0599
     57 H25        30.4106   12.4910   26.2998 H         1 SK1         0.0557
     58 H26        26.8208   10.0019   31.3680 H         1 SK1         0.0277
     59 H27        27.3337   11.5884   30.7000 H         1 SK1         0.0277
     60 H28        27.7085   11.1687   32.4058 H         1 SK1         0.0277
@<TRIPOS>BOND
     1   11    1 1  
     2    1   12 am 
     3    3    2 ar 
     4    3    4 ar 
     5    5    3 1  
     6    6    5 ar 
     7    5   10 ar 
     8    7    6 ar 
     9    8    7 ar 
    10    8    9 ar 
    11    8   11 1  
    12    9   10 ar 
    13   12   13 2  
    14   12   14 1  
    15   14   15 1  
    16   14   32 1  
    17   15   16 am 
    18   16   17 2  
    19   16   18 1  
    20   18   19 1  
    21   18   21 1  
    22   19   20 1  
    23   21   22 am 
    24   22   23 2  
    25   22   24 2  
    26   22   25 1  
    27   25   26 1  
    28   26   27 ar 
    29   26   31 ar 
    30   27   28 ar 
    31   28   29 ar 
    32   29   30 ar 
    33   30   31 ar 
    34    1   33 1  
    35    2   34 1  
    36    2   35 1  
    37    4   36 1  
    38    4   37 1  
    39    6   38 1  
    40    7   39 1  
    41    9   40 1  
    42   10   41 1  
    43   11   42 1  
    44   11   43 1  
    45   14   44 1  
    46   15   45 1  
    47   18   46 1  
    48   19   47 1  
    49   19   48 1  
    50   20   49 1  
    51   21   50 1  
    52   25   51 1  
    53   25   52 1  
    54   27   53 1  
    55   28   54 1  
    56   29   55 1  
    57   30   56 1  
    58   31   57 1  
    59   32   58 1  
    60   32   59 1  
    61   32   60 1  
@<TRIPOS>SUBSTRUCTURE
     1 SK1         1

