### 
### Created by X-TOOL on Mon Sep 10 21:12:58 2018
### 

@<TRIPOS>MOLECULE
1w12_ligand
   77    80     1     0     0
SMALL
GAST_HUCK


@<TRIPOS>ATOM
      1 N1         25.2970   17.0840   56.2410 N.am      1 SL1        -0.2182
      2 C1         25.7400   18.3280   55.5940 C.3       1 SL1         0.1834
      3 C2         24.6880   19.3460   55.7260 C.2       1 SL1         0.2445
      4 O1         23.6040   18.9760   56.1720 O.2       1 SL1        -0.3791
      5 N2         24.8680   20.6180   55.3640 N.am      1 SL1        -0.1903
      6 C3         23.7650   21.5460   55.4330 C.3       1 SL1         0.1473
      7 C4         22.7580   21.3020   54.3980 C.2       1 SL1         0.2075
      8 O3         23.1740   20.7550   53.3500 O.2       1 SL1        -0.3940
      9 N3         21.4840   21.6480   54.5870 N.am      1 SL1        -0.2647
     10 C5         20.5970   21.5530   53.4700 C.3       1 SL1         0.1129
     11 C6         20.1560   22.8210   52.9340 C.2       1 SL1         0.1245
     12 O2         20.9390   23.7770   52.8400 O.2       1 SL1        -0.3725
     13 C7         26.0870   21.0540   54.8980 C.ar      1 SL1         0.0955
     14 C9         26.8440   20.3180   53.9050 C.ar      1 SL1         0.0380
     15 C8         26.4380   19.0750   53.3570 C.2       1 SL1         0.0465
     16 N4         25.9780   18.1710   54.1970 N.2       1 SL1        -0.3104
     17 C10        26.5200   18.8070   51.9650 C.ar      1 SL1         0.0122
     18 C11        26.1530   19.7670   50.9590 C.ar      1 SL1        -0.0435
     19 C12        26.2890   19.5250   49.5700 C.ar      1 SL1        -0.0543
     20 C13        26.7620   18.2500   49.1270 C.ar      1 SL1        -0.0556
     21 C14        27.1390   17.2520   50.0760 C.ar      1 SL1        -0.0543
     22 C15        26.9870   17.5470   51.4570 C.ar      1 SL1        -0.0435
     23 C16        28.0740   20.8980   53.4690 C.ar      1 SL1        -0.0552
     24 C17        28.5570   22.1390   53.9610 C.ar      1 SL1        -0.0685
     25 C18        27.8390   22.8070   54.9830 C.ar      1 SL1        -0.0681
     26 C19        26.6000   22.2800   55.4260 C.ar      1 SL1        -0.0309
     27 C20        19.2740   20.7470   53.7080 C.3       1 SL1        -0.0105
     28 C21        19.6870   19.3040   54.1100 C.3       1 SL1        -0.0155
     29 C22        18.5020   18.4070   54.5370 C.3       1 SL1         0.0627
     30 N5         18.9480   17.0250   54.4910 N.pl3     1 SL1        -0.2723
     31 C23        18.1210   16.0090   54.8330 C.cat     1 SL1         0.2882
     32 N6         16.8230   16.2240   55.1810 N.pl3     1 SL1        -0.2849
     33 N7         18.5150   14.7280   54.8560 N.pl3     1 SL1        -0.2849
     34 S          26.5140   16.3840   57.1650 S.o2      1 SL1         0.0517
     35 O4         27.8300   16.7990   56.4970 O.2       1 SL1        -0.1532
     36 O5         26.3280   14.9000   57.0820 O.2       1 SL1        -0.1532
     37 C24        26.6830   16.7860   58.8660 C.3       1 SL1         0.1181
     38 C25        26.7880   18.2650   58.8010 C.ar      1 SL1        -0.0204
     39 C26        27.9640   18.9690   58.3960 C.ar      1 SL1        -0.0587
     40 C27        28.0420   20.3970   58.3760 C.ar      1 SL1        -0.0685
     41 C28        26.8990   21.1280   58.7920 C.ar      1 SL1        -0.0687
     42 C29        25.6810   20.4620   59.1180 C.ar      1 SL1        -0.0685
     43 C30        25.6610   19.0430   59.1550 C.ar      1 SL1        -0.0587
     44 H1         24.3791   16.6995   56.1427 H         1 SL1         0.1712
     45 H2         26.6624   18.6730   56.0840 H         1 SL1         0.0873
     46 H3         24.1555   22.5671   55.3108 H         1 SL1         0.0840
     47 H4         23.2866   21.4519   56.4190 H         1 SL1         0.0840
     48 H5         21.1604   21.9630   55.4792 H         1 SL1         0.1884
     49 H6         21.1654   21.0343   52.6840 H         1 SL1         0.0790
     50 H7         19.1232   22.9376   52.6089 H         1 SL1         0.1373
     51 H8         25.7529   20.7222   51.2793 H         1 SL1         0.0683
     52 H9         26.0376   20.2968   48.8515 H         1 SL1         0.0635
     53 H10        26.8346   18.0404   48.0659 H         1 SL1         0.0669
     54 H11        27.5307   16.2949   49.7512 H         1 SL1         0.0635
     55 H12        27.2392   16.7728   52.1726 H         1 SL1         0.0683
     56 H13        28.6643   20.3678   52.7305 H         1 SL1         0.0644
     57 H14        29.4661   22.5710   53.5586 H         1 SL1         0.0513
     58 H15        28.2344   23.7152   55.4234 H         1 SL1         0.0633
     59 H16        26.0316   22.8154   56.1779 H         1 SL1         0.0526
     60 H17        18.6740   20.7252   52.7863 H         1 SL1         0.0314
     61 H18        18.6889   21.2112   54.5156 H         1 SL1         0.0314
     62 H19        20.3931   19.3678   54.9510 H         1 SL1         0.0301
     63 H20        20.1840   18.8337   53.2487 H         1 SL1         0.0301
     64 H21        17.6574   18.5501   53.8470 H         1 SL1         0.0689
     65 H22        18.1880   18.6644   55.5593 H         1 SL1         0.0689
     66 H23        19.9111   16.8143   54.1927 H         1 SL1         0.2642
     67 H24        16.2198   15.4291   55.4361 H         1 SL1         0.2615
     68 H25        16.4439   17.1817   55.1893 H         1 SL1         0.2615
     69 H26        19.4834   14.4825   54.6054 H         1 SL1         0.2615
     70 H27        17.8494   13.9892   55.1243 H         1 SL1         0.2615
     71 H28        27.5884   16.3359   59.2990 H         1 SL1         0.0682
     72 H29        25.8030   16.4690   59.4449 H         1 SL1         0.0682
     73 H30        28.8329   18.3969   58.0913 H         1 SL1         0.0557
     74 H31        28.9443   20.9041   58.0538 H         1 SL1         0.0599
     75 H32        26.9526   22.2083   58.8630 H         1 SL1         0.0559
     76 H33        24.7839   21.0307   59.3343 H         1 SL1         0.0599
     77 H34        24.7524   18.5393   59.4646 H         1 SL1         0.0557
@<TRIPOS>BOND
     1    1    2 1  
     2    1   34 am 
     3    2    3 1  
     4    2   16 1  
     5    3    4 2  
     6    3    5 am 
     7    5    6 1  
     8    5   13 1  
     9    6    7 1  
    10    7    8 2  
    11    7    9 am 
    12    9   10 1  
    13   10   11 1  
    14   10   27 1  
    15   11   12 2  
    16   13   14 ar 
    17   13   26 ar 
    18   14   15 1  
    19   14   23 ar 
    20   15   16 2  
    21   15   17 1  
    22   17   18 ar 
    23   17   22 ar 
    24   18   19 ar 
    25   19   20 ar 
    26   20   21 ar 
    27   21   22 ar 
    28   23   24 ar 
    29   24   25 ar 
    30   25   26 ar 
    31   27   28 1  
    32   28   29 1  
    33   29   30 1  
    34   30   31 ar 
    35   31   32 ar 
    36   31   33 ar 
    37   34   35 2  
    38   34   36 2  
    39   34   37 1  
    40   37   38 1  
    41   38   39 ar 
    42   38   43 ar 
    43   39   40 ar 
    44   40   41 ar 
    45   41   42 ar 
    46   42   43 ar 
    47    1   44 1  
    48    2   45 1  
    49    6   46 1  
    50    6   47 1  
    51    9   48 1  
    52   10   49 1  
    53   11   50 1  
    54   18   51 1  
    55   19   52 1  
    56   20   53 1  
    57   21   54 1  
    58   22   55 1  
    59   23   56 1  
    60   24   57 1  
    61   25   58 1  
    62   26   59 1  
    63   27   60 1  
    64   27   61 1  
    65   28   62 1  
    66   28   63 1  
    67   29   64 1  
    68   29   65 1  
    69   30   66 1  
    70   32   67 1  
    71   32   68 1  
    72   33   69 1  
    73   33   70 1  
    74   37   71 1  
    75   37   72 1  
    76   39   73 1  
    77   40   74 1  
    78   41   75 1  
    79   42   76 1  
    80   43   77 1  
@<TRIPOS>SUBSTRUCTURE
     1 SL1         1

