### 
### Created by X-TOOL on Mon Sep 10 21:12:58 2018
### 

@<TRIPOS>MOLECULE
1w13_ligand
   62    63     1     0     0
SMALL
GAST_HUCK


@<TRIPOS>ATOM
      1 N6         35.2150    4.5230   27.3340 N.pl3     1 SM1        -0.3494
      2 C18        33.8740    4.5620   27.5210 C.cat     1 SM1         0.1642
      3 N5         33.2280    3.3910   27.5790 N.pl3     1 SM1        -0.3494
      4 N4         33.2140    5.7360   27.6500 N.pl3     1 SM1        -0.2414
      5 C14        31.9150    6.0040   27.9610 C.ar      1 SM1         0.1556
      6 C13        31.2870    7.0540   27.2660 C.ar      1 SM1         0.0451
      7 C12        30.0050    7.4920   27.6570 C.ar      1 SM1         0.0180
      8 C17        29.3460    6.8600   28.7290 C.ar      1 SM1         0.0605
      9 C16        29.9450    5.7410   29.3510 C.ar      1 SM1         0.0180
     10 C15        31.2040    5.2770   28.9450 C.ar      1 SM1         0.0451
     11 C11        28.0340    7.3360   29.2240 C.3       1 SM1         0.1040
     12 N3         28.1660    8.2190   30.3150 N.am      1 SM1        -0.2579
     13 C10        28.4450    9.5010   30.1970 C.2       1 SM1         0.2058
     14 O5         28.5460   10.0700   29.1000 O.2       1 SM1        -0.3942
     15 C8         28.6590   10.3160   31.3940 C.3       1 SM1         0.1284
     16 C22        27.4340   11.2240   31.6640 C.3       1 SM1        -0.0244
     17 N2         29.7590   11.1820   31.2470 N.am      1 SM1        -0.2643
     18 C7         31.0080   10.8900   30.9890 C.2       1 SM1         0.2023
     19 C5         32.0080   11.9490   30.8560 C.3       1 SM1         0.1490
     20 C6         32.7220   12.2720   32.1990 C.3       1 SM1         0.0809
     21 O3         31.7500   12.5830   33.2100 O.3       1 SM1        -0.3907
     22 N1         33.1030   11.5940   29.9160 N.am      1 SM1        -0.2258
     23 O4         31.3520    9.7150   30.8480 O.2       1 SM1        -0.3948
     24 O2         32.3880   13.3910   28.0760 O.2       1 SM1        -0.1532
     25 S1         32.8660   11.9360   28.2830 S.o2      1 SM1         0.0511
     26 O1         34.2430   11.6550   27.6120 O.2       1 SM1        -0.1532
     27 C1         31.6480   10.8760   27.6040 C.3       1 SM1         0.1181
     28 C4         31.4700   11.0880   26.1490 C.ar      1 SM1        -0.0204
     29 C19        32.2100   10.3160   25.2160 C.ar      1 SM1        -0.0587
     30 C20        32.0930   10.5360   23.8260 C.ar      1 SM1        -0.0685
     31 C21        31.1900   11.5140   23.3590 C.ar      1 SM1        -0.0687
     32 C2         30.4040   12.2470   24.2780 C.ar      1 SM1        -0.0685
     33 C3         30.5650   12.0620   25.6730 C.ar      1 SM1        -0.0587
     34 H1         35.6955    3.6170   27.2384 H         1 SM1         0.1668
     35 H2         35.7542    5.3994   27.2874 H         1 SM1         0.1668
     36 H3         32.2079    3.3720   27.7199 H         1 SM1         0.1668
     37 H4         33.7511    2.5089   27.4827 H         1 SM1         0.1668
     38 H5         33.7936    6.5712   27.4845 H         1 SM1         0.2425
     39 H6         31.7891    7.5265   26.4295 H         1 SM1         0.0932
     40 H7         29.5281    8.3129   27.1338 H         1 SM1         0.0862
     41 H8         29.4229    5.2338   30.1543 H         1 SM1         0.0862
     42 H9         31.6256    4.3768   29.3774 H         1 SM1         0.0932
     43 H10        27.4384    6.4673   29.5412 H         1 SM1         0.0918
     44 H11        27.5148    7.8578   28.4066 H         1 SM1         0.0918
     45 H12        28.0400    7.8492   31.2355 H         1 SM1         0.1917
     46 H13        28.8259    9.6477   32.2516 H         1 SM1         0.0797
     47 H14        27.6160   11.8265   32.5662 H         1 SM1         0.0277
     48 H15        26.5408   10.5998   31.8140 H         1 SM1         0.0277
     49 H16        27.2751   11.8908   30.8037 H         1 SM1         0.0277
     50 H17        29.5579   12.1556   31.3547 H         1 SM1         0.1883
     51 H18        31.4948   12.8509   30.4911 H         1 SM1         0.0777
     52 H19        33.3898   13.1347   32.0582 H         1 SM1         0.0602
     53 H20        33.3118   11.3997   32.5170 H         1 SM1         0.0602
     54 H21        31.1735   11.8381   33.3332 H         1 SM1         0.2097
     55 H22        33.9480   11.1685   30.2401 H         1 SM1         0.1704
     56 H23        30.6901   11.0674   28.1096 H         1 SM1         0.0682
     57 H24        31.9510    9.8326   27.7754 H         1 SM1         0.0682
     58 H25        32.8780    9.5425   25.5773 H         1 SM1         0.0557
     59 H26        32.6893    9.9608   23.1270 H         1 SM1         0.0599
     60 H27        31.0986   11.7036   22.2956 H         1 SM1         0.0559
     61 H28        29.6715   12.9570   23.9115 H         1 SM1         0.0599
     62 H29        29.9964   12.6650   26.3717 H         1 SM1         0.0557
@<TRIPOS>BOND
     1    1    2 ar 
     2    2    3 ar 
     3    2    4 ar 
     4    4    5 1  
     5    5    6 ar 
     6    5   10 ar 
     7    6    7 ar 
     8    7    8 ar 
     9    8    9 ar 
    10    8   11 1  
    11    9   10 ar 
    12   11   12 1  
    13   12   13 am 
    14   13   14 2  
    15   13   15 1  
    16   15   16 1  
    17   15   17 1  
    18   17   18 am 
    19   18   19 1  
    20   18   23 2  
    21   19   20 1  
    22   19   22 1  
    23   20   21 1  
    24   22   25 am 
    25   25   24 2  
    26   25   26 2  
    27   25   27 1  
    28   27   28 1  
    29   28   29 ar 
    30   28   33 ar 
    31   29   30 ar 
    32   30   31 ar 
    33   31   32 ar 
    34   32   33 ar 
    35    1   34 1  
    36    1   35 1  
    37    3   36 1  
    38    3   37 1  
    39    4   38 1  
    40    6   39 1  
    41    7   40 1  
    42    9   41 1  
    43   10   42 1  
    44   11   43 1  
    45   11   44 1  
    46   12   45 1  
    47   15   46 1  
    48   16   47 1  
    49   16   48 1  
    50   16   49 1  
    51   17   50 1  
    52   19   51 1  
    53   20   52 1  
    54   20   53 1  
    55   21   54 1  
    56   22   55 1  
    57   27   56 1  
    58   27   57 1  
    59   29   58 1  
    60   30   59 1  
    61   31   60 1  
    62   32   61 1  
    63   33   62 1  
@<TRIPOS>SUBSTRUCTURE
     1 SM1         1

