### 
### Created by X-TOOL on Mon Sep 10 21:12:58 2018
### 

@<TRIPOS>MOLECULE
1w14_ligand
   68    68     1     0     0
SMALL
GAST_HUCK


@<TRIPOS>ATOM
      1 C1         32.7040   12.0000   27.3830 C.3       1 SH1         0.0941
      2 C2         32.7350   12.9370   26.1960 C.3       1 SH1         0.0020
      3 C3         33.6190   12.4380   25.0570 C.ar      1 SH1        -0.0414
      4 C4         33.2190   11.3510   24.2740 C.ar      1 SH1        -0.0603
      5 C5         34.8320   13.0800   24.7990 C.ar      1 SH1        -0.0603
      6 C6         33.9910   10.9560   23.1850 C.ar      1 SH1        -0.0686
      7 C7         35.5850   12.6790   23.7080 C.ar      1 SH1        -0.0686
      8 C8         35.1660   11.6370   22.8950 C.ar      1 SH1        -0.0687
      9 S1         33.9890   12.3310   28.5990 S.o2      1 SH1         0.0431
     10 O1         35.6470   11.8470   28.2450 O.2       1 SH1        -0.1552
     11 O2         34.0560   14.0560   28.9730 O.2       1 SH1        -0.1552
     12 N1         33.5470   11.4050   30.0130 N.am      1 SH1        -0.2275
     13 C9         32.4610   11.9220   30.7860 C.3       1 SH1         0.1489
     14 C10        33.1480   12.2830   32.0940 C.3       1 SH1         0.0808
     15 O3         33.8480   11.1250   32.5350 O.3       1 SH1        -0.3907
     16 C11        31.4270   10.8060   30.8860 C.2       1 SH1         0.2023
     17 O4         31.7310    9.6360   30.5900 O.2       1 SH1        -0.3948
     18 N2         30.2100   11.1610   31.3020 N.am      1 SH1        -0.2643
     19 C12        29.1480   10.2120   31.4990 C.3       1 SH1         0.1280
     20 C13        27.9950   10.9430   32.1380 C.3       1 SH1        -0.0244
     21 C14        28.7610    9.5930   30.1500 C.2       1 SH1         0.2017
     22 O5         28.7030   10.2590   29.0860 O.2       1 SH1        -0.3945
     23 N3         28.5020    8.2860   30.2400 N.am      1 SH1        -0.2798
     24 C15        28.0250    7.5620   29.0730 C.3       1 SH1         0.0652
     25 C16        28.7440    6.2450   28.8480 C.3       1 SH1        -0.0246
     26 C17        30.2290    6.4680   28.6670 C.3       1 SH1        -0.0176
     27 C18        30.8540    5.1510   28.3070 C.3       1 SH1         0.0626
     28 N4         32.2470    5.4100   28.0420 N.pl3     1 SH1        -0.2723
     29 C19        33.1520    4.4440   27.8860 C.cat     1 SH1         0.2882
     30 N5         32.8260    3.1440   27.9710 N.pl3     1 SH1        -0.2849
     31 N6         34.4110    4.8090   27.6420 N.pl3     1 SH1        -0.2849
     32 C20        26.5090    7.3490   29.1840 C.3       1 SH1         0.0671
     33 O6         25.8170    8.5400   29.5650 O.3       1 SH1        -0.3927
     34 H1         32.8297   10.9706   27.0163 H         1 SH1         0.0541
     35 H2         31.7257   12.0967   27.8764 H         1 SH1         0.0541
     36 H3         33.1154   13.9131   26.5314 H         1 SH1         0.0442
     37 H4         31.7092   13.0539   25.8164 H         1 SH1         0.0442
     38 H5         32.3077   10.8157   24.5149 H         1 SH1         0.0557
     39 H6         35.1790   13.8801   25.4429 H         1 SH1         0.0557
     40 H7         33.6770   10.1223   22.5674 H         1 SH1         0.0599
     41 H8         36.5162   13.1876   23.4863 H         1 SH1         0.0599
     42 H9         35.7567   11.3534   22.0314 H         1 SH1         0.0559
     43 H10        34.0249   10.5639   30.2665 H         1 SH1         0.1703
     44 H11        32.0052   12.8122   30.3280 H         1 SH1         0.0777
     45 H12        32.3995   12.5792   32.8437 H         1 SH1         0.0602
     46 H13        33.8536   13.1114   31.9331 H         1 SH1         0.0602
     47 H14        34.2906   11.3164   33.3536 H         1 SH1         0.2097
     48 H15        30.0289   12.1274   31.4844 H         1 SH1         0.1883
     49 H16        29.4862    9.4112   32.1730 H         1 SH1         0.0797
     50 H17        27.1630   10.2426   32.3028 H         1 SH1         0.0277
     51 H18        27.6640   11.7562   31.4754 H         1 SH1         0.0277
     52 H19        28.3166   11.3636   33.1022 H         1 SH1         0.0277
     53 H20        28.6357    7.8068   31.1074 H         1 SH1         0.1855
     54 H21        28.2156    8.1921   28.1918 H         1 SH1         0.0579
     55 H22        28.3392    5.7626   27.9461 H         1 SH1         0.0289
     56 H23        28.5808    5.5918   29.7179 H         1 SH1         0.0289
     57 H24        30.6668    6.8459   29.6027 H         1 SH1         0.0300
     58 H25        30.4019    7.1962   27.8609 H         1 SH1         0.0300
     59 H26        30.3694    4.7339   27.4119 H         1 SH1         0.0689
     60 H27        30.7528    4.4427   29.1425 H         1 SH1         0.0689
     61 H28        32.5582    6.3892   27.9697 H         1 SH1         0.2642
     62 H29        33.5500    2.4222   27.8453 H         1 SH1         0.2615
     63 H30        31.8520    2.8687   28.1619 H         1 SH1         0.2615
     64 H31        34.6545    5.8078   27.5780 H         1 SH1         0.2615
     65 H32        35.1401    4.0922   27.5175 H         1 SH1         0.2615
     66 H33        26.3159    6.5719   29.9382 H         1 SH1         0.0580
     67 H34        26.1269    7.0156   28.2079 H         1 SH1         0.0580
     68 H35        26.1350    8.8328   30.4109 H         1 SH1         0.2095
@<TRIPOS>BOND
     1    1    2 1  
     2    1    9 1  
     3    2    3 1  
     4    3    4 ar 
     5    3    5 ar 
     6    4    6 ar 
     7    5    7 ar 
     8    6    8 ar 
     9    7    8 ar 
    10    9   10 2  
    11    9   11 2  
    12    9   12 am 
    13   12   13 1  
    14   13   14 1  
    15   13   16 1  
    16   14   15 1  
    17   16   17 2  
    18   16   18 am 
    19   18   19 1  
    20   19   20 1  
    21   19   21 1  
    22   21   22 2  
    23   21   23 am 
    24   23   24 1  
    25   24   25 1  
    26   24   32 1  
    27   25   26 1  
    28   26   27 1  
    29   27   28 1  
    30   28   29 ar 
    31   29   30 ar 
    32   29   31 ar 
    33   32   33 1  
    34    1   34 1  
    35    1   35 1  
    36    2   36 1  
    37    2   37 1  
    38    4   38 1  
    39    5   39 1  
    40    6   40 1  
    41    7   41 1  
    42    8   42 1  
    43   12   43 1  
    44   13   44 1  
    45   14   45 1  
    46   14   46 1  
    47   15   47 1  
    48   18   48 1  
    49   19   49 1  
    50   20   50 1  
    51   20   51 1  
    52   20   52 1  
    53   23   53 1  
    54   24   54 1  
    55   25   55 1  
    56   25   56 1  
    57   26   57 1  
    58   26   58 1  
    59   27   59 1  
    60   27   60 1  
    61   28   61 1  
    62   30   62 1  
    63   30   63 1  
    64   31   64 1  
    65   31   65 1  
    66   32   66 1  
    67   32   67 1  
    68   33   68 1  
@<TRIPOS>SUBSTRUCTURE
     1 SH1         1

