### 
### Created by X-TOOL on Mon Sep 10 21:12:52 2018
### 

@<TRIPOS>MOLECULE
1w1p_ligand
   21    22     1     0     0
SMALL
GAST_HUCK


@<TRIPOS>ATOM
      1 OP         15.9870   43.6500  101.1850 O.2       1 GIO        -0.3944
      2 CP         16.9460   43.5230  101.9460 C.2       1 GIO         0.2039
      3 CAP        17.3080   44.6340  102.9360 C.3       1 GIO         0.1338
      4 CBP        17.0650   46.0150  102.3230 C.3       1 GIO        -0.0104
      5 CGP        17.8910   46.8710  103.2870 C.3       1 GIO        -0.0281
      6 CDP        19.2180   46.1080  103.3300 C.3       1 GIO         0.0369
      7 NP         18.7570   44.7080  103.1820 N.am      1 GIO        -0.2501
      8 C          19.5130   43.5290  103.1500 C.2       1 GIO         0.2032
      9 O          20.7240   43.5790  103.3540 O.2       1 GIO        -0.3945
     10 CA         18.8510   42.1780  102.8620 C.3       1 GIO         0.1203
     11 N          17.7320   42.3640  101.9090 N.am      1 GIO        -0.2664
     12 H1         16.7439   44.4939  103.8699 H         1 GIO         0.0802
     13 H2         16.0000   46.2897  102.3406 H         1 GIO         0.0313
     14 H3         17.4430   46.0782  101.2919 H         1 GIO         0.0313
     15 H4         17.4238   46.9171  104.2818 H         1 GIO         0.0287
     16 H5         18.0285   47.8910  102.8988 H         1 GIO         0.0287
     17 H6         19.7388   46.2607  104.2868 H         1 GIO         0.0524
     18 H7         19.8787   46.4034  102.5016 H         1 GIO         0.0524
     19 H8         18.4655   41.7522  103.8001 H         1 GIO         0.0763
     20 H9         19.5928   41.4928  102.4258 H         1 GIO         0.0763
     21 H10        17.5357   41.6546  101.2321 H         1 GIO         0.1881
@<TRIPOS>BOND
     1    1    2 2  
     2    2    3 1  
     3    2   11 am 
     4    3    4 1  
     5    3    7 1  
     6    4    5 1  
     7    5    6 1  
     8    6    7 1  
     9    7    8 am 
    10    8    9 2  
    11    8   10 1  
    12   10   11 1  
    13    3   12 1  
    14    4   13 1  
    15    4   14 1  
    16    5   15 1  
    17    5   16 1  
    18    6   17 1  
    19    6   18 1  
    20   10   19 1  
    21   10   20 1  
    22   11   21 1  
@<TRIPOS>SUBSTRUCTURE
     1 GIO         1

