### 
### Created by X-TOOL on Mon Sep 10 21:12:52 2018
### 

@<TRIPOS>MOLECULE
1w1t_ligand
   31    33     1     0     0
SMALL
GAST_HUCK


@<TRIPOS>ATOM
      1 N          17.5970   42.2780  101.9110 N.am      1 CHQ        -0.2625
      2 CA         18.9300   42.2000  102.5310 C.3       1 CHQ         0.1371
      3 C          19.4770   43.5730  102.9430 C.2       1 CHQ         0.2079
      4 O          20.6640   43.6740  103.2510 O.2       1 CHQ        -0.3940
      5 CB         19.8800   41.5830  101.5000 C.3       1 CHQ         0.0145
      6 ND1        21.2190   42.5810   99.5840 N.2       1 CHQ        -0.3252
      7 CE1        20.9440   43.4340   98.6040 C.2       1 CHQ         0.0907
      8 NE2        19.6800   43.8410   98.6170 N.pl3     1 CHQ        -0.2752
      9 CD2        19.1470   43.2070   99.6590 C.2       1 CHQ         0.0291
     10 CG         20.0720   42.4480  100.2490 C.2       1 CHQ        -0.0027
     11 NP         18.6790   44.7210  103.0080 N.am      1 CHQ        -0.2497
     12 CAP        17.2360   44.6550  102.7270 C.3       1 CHQ         0.1338
     13 CP         16.8080   43.4350  101.9060 C.2       1 CHQ         0.2042
     14 OP         15.7460   43.4430  101.2830 O.2       1 CHQ        -0.3944
     15 CBP        17.0640   45.9700  101.9650 C.3       1 CHQ        -0.0104
     16 CGP        17.8430   46.9080  102.8920 C.3       1 CHQ        -0.0281
     17 CDP        19.1300   46.1230  103.1650 C.3       1 CHQ         0.0369
     18 H1         17.2343   41.4580  101.4682 H         1 CHQ         0.1885
     19 H2         18.8752   41.5574  103.4221 H         1 CHQ         0.0817
     20 H3         19.4727   40.6092  101.1905 H         1 CHQ         0.0420
     21 H4         20.8611   41.4358  101.9751 H         1 CHQ         0.0420
     22 H5         21.6763   43.7642   97.8688 H         1 CHQ         0.1199
     23 H6         19.2185   44.4962   97.9700 H         1 CHQ         0.2361
     24 H7         18.1106   43.2948   99.9817 H         1 CHQ         0.0729
     25 H8         16.6564   44.6607  103.6619 H         1 CHQ         0.0802
     26 H9         16.0063   46.2606  101.8830 H         1 CHQ         0.0313
     27 H10        17.5103   45.9230  100.9607 H         1 CHQ         0.0313
     28 H11        17.2882   47.0956  103.8231 H         1 CHQ         0.0287
     29 H12        18.0605   47.8652  102.3955 H         1 CHQ         0.0287
     30 H13        19.9132   46.3744  102.4347 H         1 CHQ         0.0524
     31 H14        19.5035   46.3105  104.1825 H         1 CHQ         0.0524
@<TRIPOS>BOND
     1    2    1 1  
     2    1   13 am 
     3    2    3 1  
     4    5    2 1  
     5    3    4 2  
     6    3   11 am 
     7   10    5 1  
     8    6    7 2  
     9    6   10 1  
    10    7    8 1  
    11    8    9 1  
    12    9   10 2  
    13   11   12 1  
    14   11   17 1  
    15   12   13 1  
    16   12   15 1  
    17   13   14 2  
    18   15   16 1  
    19   16   17 1  
    20    1   18 1  
    21    2   19 1  
    22    5   20 1  
    23    5   21 1  
    24    7   22 1  
    25    8   23 1  
    26    9   24 1  
    27   12   25 1  
    28   15   26 1  
    29   15   27 1  
    30   16   28 1  
    31   16   29 1  
    32   17   30 1  
    33   17   31 1  
@<TRIPOS>SUBSTRUCTURE
     1 CHQ         1

