### 
### Created by X-TOOL on Mon Sep 10 21:12:52 2018
### 

@<TRIPOS>MOLECULE
1w1v_ligand
   38    39     1     0     0
SMALL
GAST_HUCK


@<TRIPOS>ATOM
      1 O          20.6420   43.3440  103.2610 O.2       1 ALJ        -0.3942
      2 C          19.4840   43.3420  102.8460 C.2       1 ALJ         0.2064
      3 NP         18.8080   44.5540  102.6470 N.am      1 ALJ        -0.2498
      4 CDP        19.2500   45.9640  102.7540 C.3       1 ALJ         0.0369
      5 CGP        17.9660   46.7650  102.5220 C.3       1 ALJ        -0.0281
      6 CBP        17.2690   45.9010  101.4720 C.3       1 ALJ        -0.0104
      7 CAP        17.4170   44.5460  102.1640 C.3       1 ALJ         0.1338
      8 CP         17.2000   43.3920  101.1860 C.2       1 ALJ         0.2041
      9 OP         16.4410   43.5260  100.2240 O.2       1 ALJ        -0.3944
     10 N          17.8660   42.1790  101.4100 N.am      1 ALJ        -0.2637
     11 CA         18.7590   42.0240  102.5690 C.3       1 ALJ         0.1313
     12 CB         19.7510   40.8810  102.3340 C.3       1 ALJ        -0.0092
     13 CG         18.9880   39.5690  102.5280 C.3       1 ALJ        -0.0156
     14 CD         19.9020   38.3410  102.5180 C.3       1 ALJ         0.0627
     15 NE         19.0000   37.1890  102.6760 N.pl3     1 ALJ        -0.2723
     16 CZ         18.7420   36.3840  101.6480 C.cat     1 ALJ         0.2882
     17 NH1        19.3650   36.5540  100.4850 N.pl3     1 ALJ        -0.2849
     18 NH2        17.8990   35.3640  101.8000 N.pl3     1 ALJ        -0.2849
     19 H1         20.0027   46.1985  101.9869 H         1 ALJ         0.0524
     20 H2         19.6662   46.1701  103.7511 H         1 ALJ         0.0524
     21 H3         18.1824   47.7725  102.1371 H         1 ALJ         0.0287
     22 H4         17.3677   46.8444  103.4416 H         1 ALJ         0.0287
     23 H5         17.7857   45.9298  100.5013 H         1 ALJ         0.0313
     24 H6         16.2149   46.1840  101.3349 H         1 ALJ         0.0313
     25 H7         16.7090   44.4553  103.0009 H         1 ALJ         0.0802
     26 H8         17.7334   41.4149  100.7786 H         1 ALJ         0.1883
     27 H9         18.1484   41.7734  103.4489 H         1 ALJ         0.0800
     28 H10        20.5780   40.9458  103.0564 H         1 ALJ         0.0313
     29 H11        20.1524   40.9352  101.3113 H         1 ALJ         0.0313
     30 H12        18.2537   39.4665  101.7154 H         1 ALJ         0.0301
     31 H13        18.4630   39.6078  103.4938 H         1 ALJ         0.0301
     32 H14        20.6191   38.3868  103.3509 H         1 ALJ         0.0689
     33 H15        20.4493   38.2749  101.5661 H         1 ALJ         0.0689
     34 H16        18.5642   37.0040  103.5908 H         1 ALJ         0.2642
     35 H17        19.1597   35.9267   99.6943 H         1 ALJ         0.2615
     36 H18        20.0527   37.3129  100.3752 H         1 ALJ         0.2615
     37 H19        17.4134   35.2267  102.6979 H         1 ALJ         0.2615
     38 H20        17.7328   34.7126  101.0197 H         1 ALJ         0.2615
@<TRIPOS>BOND
     1    1    2 2  
     2    2    3 am 
     3    2   11 1  
     4    3    4 1  
     5    3    7 1  
     6    4    5 1  
     7    5    6 1  
     8    6    7 1  
     9    7    8 1  
    10    8    9 2  
    11    8   10 am 
    12   10   11 1  
    13   11   12 1  
    14   12   13 1  
    15   13   14 1  
    16   14   15 1  
    17   15   16 ar 
    18   16   17 ar 
    19   16   18 ar 
    20    4   19 1  
    21    4   20 1  
    22    5   21 1  
    23    5   22 1  
    24    6   23 1  
    25    6   24 1  
    26    7   25 1  
    27   10   26 1  
    28   11   27 1  
    29   12   28 1  
    30   12   29 1  
    31   13   30 1  
    32   13   31 1  
    33   14   32 1  
    34   14   33 1  
    35   15   34 1  
    36   17   35 1  
    37   17   36 1  
    38   18   37 1  
    39   18   38 1  
@<TRIPOS>SUBSTRUCTURE
     1 ALJ         1

