### 
### Created by X-TOOL on Mon Sep 10 21:12:52 2018
### 

@<TRIPOS>MOLECULE
1w1y_ligand
   35    37     1     0     0
SMALL
GAST_HUCK


@<TRIPOS>ATOM
      1 N          17.9710   43.0160  100.4770 N.am      1 TYP        -0.2621
      2 CA         18.8720   42.5860  101.5650 C.3       1 TYP         0.1392
      3 C          19.4970   43.8150  102.2060 C.2       1 TYP         0.2082
      4 O          20.6540   43.8030  102.5850 O.2       1 TYP        -0.3940
      5 CB         19.9510   41.6650  100.9840 C.3       1 TYP         0.0164
      6 CG         19.3380   40.3010  100.6820 C.ar      1 TYP        -0.0493
      7 CD1        18.6840   40.0680   99.4470 C.ar      1 TYP        -0.0685
      8 CE1        18.1010   38.8100   99.1950 C.ar      1 TYP        -0.0398
      9 CE2        18.8270   38.0250  101.3960 C.ar      1 TYP        -0.0398
     10 CD2        19.4100   39.2790  101.6540 C.ar      1 TYP        -0.0685
     11 CZ         18.1710   37.7900  100.1700 C.ar      1 TYP         0.0805
     12 OH         17.5920   36.5780   99.9300 O.3       1 TYP        -0.3376
     13 NP         18.7050   44.9510  102.3990 N.am      1 TYP        -0.2497
     14 CAP        17.2770   44.8930  101.9930 C.3       1 TYP         0.1338
     15 CP         17.1890   44.1680  100.6480 C.2       1 TYP         0.2042
     16 OP         16.4730   44.5830   99.7290 O.2       1 TYP        -0.3944
     17 CBP        16.8370   46.3580  101.9130 C.3       1 TYP        -0.0104
     18 CGP        18.1340   47.1680  101.9520 C.3       1 TYP        -0.0281
     19 CDP        19.1040   46.3240  102.7740 C.3       1 TYP         0.0369
     20 H1         17.9188   42.4915   99.6272 H         1 TYP         0.1885
     21 H2         18.2967   42.0354  102.3239 H         1 TYP         0.0821
     22 H3         20.7665   41.5484  101.7129 H         1 TYP         0.0453
     23 H4         20.3481   42.1032  100.0565 H         1 TYP         0.0453
     24 H5         18.6324   40.8524   98.7006 H         1 TYP         0.0530
     25 H6         17.5985   38.6249   98.2525 H         1 TYP         0.0525
     26 H7         18.8821   37.2387  102.1402 H         1 TYP         0.0525
     27 H8         19.9134   39.4604  102.5967 H         1 TYP         0.0530
     28 H9         17.1959   36.5830   99.0665 H         1 TYP         0.2458
     29 H10        16.6735   44.3558  102.7394 H         1 TYP         0.0802
     30 H11        16.1954   46.6155  102.7686 H         1 TYP         0.0313
     31 H12        16.2922   46.5467  100.9762 H         1 TYP         0.0313
     32 H13        17.9664   48.1428  102.4334 H         1 TYP         0.0287
     33 H14        18.5232   47.3233  100.9350 H         1 TYP         0.0287
     34 H15        20.1481   46.5279  102.4943 H         1 TYP         0.0524
     35 H16        18.9723   46.4988  103.8520 H         1 TYP         0.0524
@<TRIPOS>BOND
     1    1    2 1  
     2    1   15 am 
     3    2    3 1  
     4    2    5 1  
     5    3    4 2  
     6    3   13 am 
     7    5    6 1  
     8    6    7 ar 
     9    6   10 ar 
    10    7    8 ar 
    11    8   11 ar 
    12   10    9 ar 
    13    9   11 ar 
    14   11   12 1  
    15   13   14 1  
    16   13   19 1  
    17   14   15 1  
    18   14   17 1  
    19   15   16 2  
    20   17   18 1  
    21   18   19 1  
    22    1   20 1  
    23    2   21 1  
    24    5   22 1  
    25    5   23 1  
    26    7   24 1  
    27    8   25 1  
    28    9   26 1  
    29   10   27 1  
    30   12   28 1  
    31   14   29 1  
    32   17   30 1  
    33   17   31 1  
    34   18   32 1  
    35   18   33 1  
    36   19   34 1  
    37   19   35 1  
@<TRIPOS>SUBSTRUCTURE
     1 TYP         1

