### 
### Created by X-TOOL on Mon Sep 10 21:12:51 2018
### 

@<TRIPOS>MOLECULE
1w22_ligand
   41    43     1     0     0
SMALL
GAST_HUCK


@<TRIPOS>ATOM
      1 C7          0.0760   16.7330   26.0190 C.ar      1 NHB        -0.0305
      2 C8         -0.5380   17.4090   24.9680 C.ar      1 NHB        -0.0456
      3 C9          0.2230   17.6680   23.8330 C.ar      1 NHB        -0.0378
      4 C10         1.5680   17.2580   23.7770 C.ar      1 NHB         0.0054
      5 N11         2.1420   16.6230   24.7980 N.ar      1 NHB        -0.2977
      6 C6          1.4250   16.3410   25.9190 C.ar      1 NHB         0.0556
      7 C4          2.0230   15.6770   26.9930 C.2       1 NHB         0.0542
      8 S5          1.5490   15.9510   28.5730 S.3       1 NHB        -0.0039
      9 C3          3.0260   14.7700   27.0280 C.2       1 NHB        -0.0600
     10 C2          3.3760   14.3300   28.2650 C.2       1 NHB        -0.0405
     11 C1          2.6550   14.8870   29.2430 C.2       1 NHB         0.1747
     12 S12         2.8020   14.5870   30.9670 S.o2      1 NHB         0.1052
     13 O13         2.5870   15.8440   31.7380 O.2       1 NHB        -0.1425
     14 O14         4.1650   14.0270   31.3020 O.2       1 NHB        -0.1425
     15 N15         1.5790   13.5120   31.1630 N.am      1 NHB        -0.1718
     16 C16         0.2250   14.0170   31.3970 C.3       1 NHB         0.0465
     17 C17         1.7900   12.1950   31.0620 C.ar      1 NHB         0.0714
     18 C18         1.9010   11.4010   32.1890 C.ar      1 NHB        -0.0390
     19 C19         2.1070   10.0300   32.0740 C.ar      1 NHB        -0.0577
     20 C22         1.8930   11.5980   29.8170 C.ar      1 NHB        -0.0390
     21 C21         2.0970   10.2230   29.7070 C.ar      1 NHB        -0.0577
     22 C20         2.2150    9.4130   30.8330 C.ar      1 NHB         0.0334
     23 C23         2.4840    7.8900   30.7090 C.2       1 NHB         0.2148
     24 O25         2.6220    7.3530   29.6230 O.2       1 NHB        -0.3931
     25 N24         2.6130    7.2120   31.8290 N.am      1 NHB        -0.1660
     26 O26         3.0030    5.9130   31.8090 O.3       1 NHB        -0.2724
     27 H1         -0.4865   16.5075   26.9178 H         1 NHB         0.0691
     28 H2         -1.5736   17.7227   25.0321 H         1 NHB         0.0723
     29 H3         -0.2205   18.1863   22.9905 H         1 NHB         0.0679
     30 H4          2.1489   17.4630   22.8850 H         1 NHB         0.0817
     31 H5          3.5203   14.4159   26.1245 H         1 NHB         0.0489
     32 H6          4.1632   13.5985   28.4415 H         1 NHB         0.0459
     33 H7         -0.4685   13.1701   31.5058 H         1 NHB         0.0523
     34 H8         -0.0867   14.6390   30.5450 H         1 NHB         0.0523
     35 H9          0.2127   14.6213   32.3161 H         1 NHB         0.0523
     36 H10         1.8267   11.8517   33.1721 H         1 NHB         0.0497
     37 H11         2.1851    9.4290   32.9728 H         1 NHB         0.0624
     38 H12         1.8145   12.2038   28.9215 H         1 NHB         0.0497
     39 H13         2.1652    9.7747   28.7224 H         1 NHB         0.0624
     40 H14         2.4218    7.6584   32.7032 H         1 NHB         0.2206
     41 H15         3.0434    5.5819   32.6985 H         1 NHB         0.2490
@<TRIPOS>BOND
     1    1    2 ar 
     2    1    6 ar 
     3    2    3 ar 
     4    3    4 ar 
     5    4    5 ar 
     6    5    6 ar 
     7    6    7 1  
     8    7    8 1  
     9    7    9 2  
    10    8   11 1  
    11    9   10 1  
    12   10   11 2  
    13   11   12 1  
    14   12   13 2  
    15   12   14 2  
    16   12   15 am 
    17   15   16 1  
    18   15   17 1  
    19   17   18 ar 
    20   17   20 ar 
    21   18   19 ar 
    22   19   22 ar 
    23   20   21 ar 
    24   21   22 ar 
    25   22   23 1  
    26   23   24 2  
    27   23   25 am 
    28   25   26 1  
    29    1   27 1  
    30    2   28 1  
    31    3   29 1  
    32    4   30 1  
    33    9   31 1  
    34   10   32 1  
    35   16   33 1  
    36   16   34 1  
    37   16   35 1  
    38   18   36 1  
    39   19   37 1  
    40   20   38 1  
    41   21   39 1  
    42   25   40 1  
    43   26   41 1  
@<TRIPOS>SUBSTRUCTURE
     1 NHB         1

