### 
### Created by X-TOOL on Mon Sep 10 21:12:53 2018
### 

@<TRIPOS>MOLECULE
1w2g_ligand
   31    32     1     0     0
SMALL
GAST_HUCK


@<TRIPOS>ATOM
      1 O5         32.3410   25.9330   88.8560 O.3       1 THM        -0.3924
      2 C5         31.3360   26.4800   88.0450 C.3       1 THM         0.0729
      3 C4         30.4990   25.3810   87.2800 C.3       1 THM         0.1109
      4 O4         31.0250   24.7760   86.0910 O.3       1 THM        -0.3399
      5 C3         29.9540   24.0800   87.9600 C.3       1 THM         0.0885
      6 O3         28.6030   23.5750   87.5180 O.3       1 THM        -0.3890
      7 C2         31.2300   23.2260   87.7370 C.3       1 THM         0.0308
      8 C1         31.4830   23.4560   86.2720 C.3       1 THM         0.1756
      9 N1         32.8910   23.4430   85.7840 N.am      1 THM        -0.1736
     10 C2         33.2270   22.7100   84.6780 C.2       1 THM         0.3265
     11 O2         32.3140   22.0590   84.0860 O.2       1 THM        -0.3843
     12 N3         34.4820   22.6590   84.2020 N.am      1 THM        -0.1859
     13 C4         35.4540   23.3400   84.8190 C.2       1 THM         0.1930
     14 O4         36.6730   23.2750   84.3390 O.2       1 THM        -0.4079
     15 C5         35.1570   24.1140   85.9680 C.2       1 THM         0.0225
     16 C5M        36.2310   24.9020   86.6990 C.3       1 THM        -0.0437
     17 C6         33.8320   24.1490   86.4420 C.2       1 THM         0.0524
     18 H1         32.8118   26.6341   89.2911 H         1 THM         0.2095
     19 H2         31.8053   27.1432   87.3035 H         1 THM         0.0584
     20 H3         30.6524   27.0640   88.6787 H         1 THM         0.0584
     21 H4         29.6102   25.9516   86.9727 H         1 THM         0.0646
     22 H5         29.8405   24.2591   89.0394 H         1 THM         0.0622
     23 H6         27.9466   24.2406   87.6869 H         1 THM         0.2099
     24 H7         31.0464   22.1630   87.9523 H         1 THM         0.0344
     25 H8         32.0682   23.5853   88.3521 H         1 THM         0.0344
     26 H9         30.8993   22.7329   85.6835 H         1 THM         0.0959
     27 H10        34.6889   22.1140   83.3895 H         1 THM         0.2259
     28 H11        35.7822   25.4259   87.5558 H         1 THM         0.0296
     29 H12        36.6776   25.6367   86.0130 H         1 THM         0.0296
     30 H13        37.0107   24.2138   87.0576 H         1 THM         0.0296
     31 H14        33.5724   24.7347   87.3226 H         1 THM         0.1011
@<TRIPOS>BOND
     1    1    2 1  
     2    2    3 1  
     3    3    4 1  
     4    3    5 1  
     5    4    8 1  
     6    5    6 1  
     7    5    7 1  
     8    7    8 1  
     9    8    9 1  
    10    9   10 am 
    11    9   17 1  
    12   10   11 2  
    13   10   12 am 
    14   12   13 am 
    15   13   14 2  
    16   13   15 1  
    17   15   16 1  
    18   15   17 2  
    19    1   18 1  
    20    2   19 1  
    21    2   20 1  
    22    3   21 1  
    23    5   22 1  
    24    6   23 1  
    25    7   24 1  
    26    7   25 1  
    27    8   26 1  
    28   12   27 1  
    29   16   28 1  
    30   16   29 1  
    31   16   30 1  
    32   17   31 1  
@<TRIPOS>SUBSTRUCTURE
     1 THM         1

