### 
### Created by X-TOOL on Mon Sep 10 21:12:52 2018
### 

@<TRIPOS>MOLECULE
1w2k_ligand
   58    60     1     0     0
SMALL
GAST_HUCK


@<TRIPOS>ATOM
      1 C1         30.3400    6.7100   15.0520 C.cat     1 380         0.2283
      2 N1         29.3360    7.3050   15.7410 N.pl3     1 380        -0.2736
      3 N2         31.0110    5.8030   15.7980 N.pl3     1 380        -0.2736
      4 C2         30.5660    6.8970   13.6060 C.ar      1 380         0.0122
      5 C3         29.7360    7.7560   12.8270 C.ar      1 380        -0.0685
      6 C4         29.7840    7.7520   11.4310 C.ar      1 380        -0.0443
      7 C5         30.6720    6.8820   10.7800 C.ar      1 380         0.0414
      8 N3         30.9540    6.9830    9.3970 N.pl3     1 380        -0.2937
      9 C11        32.1720    6.2720    8.8890 C.3       1 380         0.1512
     10 C22        32.0320    5.8400    7.4840 C.2       1 380         0.2126
     11 N24        31.6530    6.7080    6.5150 N.am      1 380        -0.2723
     12 C25        31.8630    6.0460    5.1950 C.3       1 380         0.0646
     13 C26        33.0760    6.6070    4.5110 C.ar      1 380        -0.0210
     14 C27        32.8430    7.7450    3.7500 C.ar      1 380        -0.0584
     15 C28        33.8150    8.7260    3.6590 C.ar      1 380        -0.0685
     16 C29        35.0290    8.5640    4.3200 C.ar      1 380        -0.0687
     17 C30        35.2950    7.3990    5.0330 C.ar      1 380        -0.0685
     18 C31        34.3150    6.4170    5.1120 C.ar      1 380        -0.0584
     19 O23        32.3920    4.7420    7.0860 O.2       1 380        -0.3918
     20 C12        33.5420    6.9460    9.1030 C.ar      1 380        -0.0194
     21 C17        33.8560    8.2680    8.7430 C.ar      1 380        -0.0353
     22 C19        35.1750    8.7390    8.8960 C.ar      1 380         0.1137
     23 O2         35.5840    9.9840    8.4470 O.3       1 380        -0.3265
     24 C24        34.6260   10.8800    7.8900 C.3       1 380         0.0568
     25 C20        36.1770    7.9160    9.4180 C.ar      1 380         0.1125
     26 O3         37.3910    8.5160    9.7640 O.3       1 380        -0.3292
     27 C32        38.3870    7.8460   10.5560 C.3       1 380         0.0554
     28 C16        34.5650    6.1410    9.6010 C.ar      1 380        -0.0756
     29 C18        35.8680    6.6030    9.7650 C.ar      1 380        -0.0474
     30 C6         31.5080    6.0460   11.5460 C.ar      1 380        -0.0443
     31 C7         31.4620    6.0530   12.9360 C.ar      1 380        -0.0685
     32 H1         28.7485    8.0166   15.2834 H         1 380         0.3179
     33 H2         29.1605    7.0456   16.7222 H         1 380         0.3179
     34 H3         31.7987    5.2809   15.3884 H         1 380         0.3179
     35 H4         30.7343    5.6344   16.7757 H         1 380         0.3179
     36 H5         29.0510    8.4286   13.3306 H         1 380         0.0582
     37 H6         29.1435    8.4125   10.8578 H         1 380         0.0515
     38 H7         30.3466    7.5235    8.7646 H         1 380         0.1809
     39 H8         32.2169    5.3483    9.4846 H         1 380         0.0929
     40 H9         31.2953    7.6306    6.6595 H         1 380         0.1880
     41 H10        30.9799    6.2146    4.5612 H         1 380         0.0683
     42 H11        32.0023    4.9659    5.3500 H         1 380         0.0683
     43 H12        31.9007    7.8648    3.2277 H         1 380         0.0557
     44 H13        33.6310    9.6195    3.0735 H         1 380         0.0599
     45 H14        35.7730    9.3513    4.2791 H         1 380         0.0559
     46 H15        36.2533    7.2595    5.5200 H         1 380         0.0599
     47 H16        34.5182    5.4959    5.6463 H         1 380         0.0557
     48 H17        33.0866    8.9223    8.3493 H         1 380         0.0455
     49 H18        35.1269   11.8123    7.5901 H         1 380         0.0573
     50 H19        33.8535   11.1038    8.6405 H         1 380         0.0573
     51 H20        34.1581   10.4156    7.0094 H         1 380         0.0573
     52 H21        39.2512    8.5116   10.6980 H         1 380         0.0570
     53 H22        38.7106    6.9300   10.0400 H         1 380         0.0570
     54 H23        37.9611    7.5840   11.5358 H         1 380         0.0570
     55 H24        34.3374    5.1161    9.8709 H         1 380         0.0441
     56 H25        36.6353    5.9466   10.1593 H         1 380         0.0493
     57 H26        32.2017    5.3833   11.0414 H         1 380         0.0515
     58 H27        32.1205    5.4043   13.5023 H         1 380         0.0582
@<TRIPOS>BOND
     1    1    2 ar 
     2    1    3 ar 
     3    1    4 1  
     4    4    5 ar 
     5    4   31 ar 
     6    5    6 ar 
     7    6    7 ar 
     8    7    8 1  
     9    7   30 ar 
    10    8    9 1  
    11    9   10 1  
    12    9   20 1  
    13   10   11 am 
    14   10   19 2  
    15   11   12 1  
    16   12   13 1  
    17   13   14 ar 
    18   13   18 ar 
    19   14   15 ar 
    20   15   16 ar 
    21   16   17 ar 
    22   17   18 ar 
    23   20   21 ar 
    24   20   28 ar 
    25   21   22 ar 
    26   22   23 1  
    27   22   25 ar 
    28   23   24 1  
    29   25   26 1  
    30   25   29 ar 
    31   26   27 1  
    32   28   29 ar 
    33   30   31 ar 
    34    2   32 1  
    35    2   33 1  
    36    3   34 1  
    37    3   35 1  
    38    5   36 1  
    39    6   37 1  
    40    8   38 1  
    41    9   39 1  
    42   11   40 1  
    43   12   41 1  
    44   12   42 1  
    45   14   43 1  
    46   15   44 1  
    47   16   45 1  
    48   17   46 1  
    49   18   47 1  
    50   21   48 1  
    51   24   49 1  
    52   24   50 1  
    53   24   51 1  
    54   27   52 1  
    55   27   53 1  
    56   27   54 1  
    57   28   55 1  
    58   29   56 1  
    59   30   57 1  
    60   31   58 1  
@<TRIPOS>SUBSTRUCTURE
     1 380         1

