### 
### Created by X-TOOL on Mon Sep 10 21:12:51 2018
### 

@<TRIPOS>MOLECULE
1w2x_ligand
   72    77     1     0     0
SMALL
GAST_HUCK


@<TRIPOS>ATOM
      1 C29        -5.2130   34.1310  -16.7800 C.3       1 RCP         0.0573
      2 C30        -5.2190   35.6620  -16.7380 C.3       1 RCP         0.0681
      3 O28        -4.2710   36.1310  -15.7640 O.3       1 RCP        -0.3758
      4 C28        -2.9260   35.8120  -16.1540 C.3       1 RCP         0.0681
      5 C27        -2.7390   34.2930  -16.1230 C.3       1 RCP         0.0573
      6 N26        -3.8270   33.6090  -16.8610 N.am      1 RCP        -0.2684
      7 C26        -3.5420   32.5310  -17.5870 C.2       1 RCP         0.1868
      8 O26        -2.4030   32.0640  -17.5410 O.2       1 RCP        -0.3964
      9 C25        -4.5960   31.8710  -18.4800 C.3       1 RCP         0.0888
     10 C24        -3.9090   31.3610  -19.7490 C.3       1 RCP        -0.0117
     11 C23        -5.2420   30.7040  -17.7270 C.3       1 RCP        -0.0234
     12 C22        -6.0850   29.8080  -18.6400 C.3       1 RCP        -0.0100
     13 C21        -5.3100   29.4240  -19.9030 C.3       1 RCP        -0.0313
     14 N20        -4.8760   30.6460  -20.5970 N.4       1 RCP         0.2393
     15 C20        -4.2590   30.3420  -21.8990 C.3       1 RCP        -0.0170
     16 C19        -3.9080   31.6340  -22.6430 C.3       1 RCP         0.0107
     17 C18        -3.1960   31.3300  -23.9640 C.3       1 RCP         0.0381
     18 C17        -5.1840   29.4890  -22.7730 C.3       1 RCP         0.0107
     19 C16        -4.5010   29.1270  -24.0950 C.3       1 RCP         0.0381
     20 N15        -3.9980   30.3590  -24.7460 N.am      1 RCP        -0.2735
     21 C15        -4.2740   30.5770  -26.0310 C.2       1 RCP         0.2034
     22 O15        -4.7880   29.6770  -26.6940 O.2       1 RCP        -0.3885
     23 C14        -3.9670   31.9270  -26.6890 C.ar      1 RCP         0.0597
     24 C1         -2.8060   32.0900  -27.4410 C.ar      1 RCP        -0.0005
     25 C2         -1.8750   31.0580  -27.5480 C.ar      1 RCP        -0.0515
     26 C3         -0.7190   31.2230  -28.3050 C.ar      1 RCP        -0.0597
     27 C4         -0.4850   32.4260  -28.9630 C.ar      1 RCP        -0.0594
     28 C5         -1.4090   33.4610  -28.8590 C.ar      1 RCP        -0.0511
     29 C6         -2.5650   33.2950  -28.0990 C.ar      1 RCP        -0.0094
     30 C7         -3.4780   34.3400  -28.0010 C.ar      1 RCP        -0.0380
     31 C8         -4.6340   34.1820  -27.2420 C.ar      1 RCP        -0.0094
     32 C13        -4.8790   32.9760  -26.5840 C.ar      1 RCP        -0.0005
     33 C12        -6.0300   32.8450  -25.8130 C.ar      1 RCP        -0.0515
     34 C11        -6.9290   33.9020  -25.6960 C.ar      1 RCP        -0.0597
     35 C10        -6.6800   35.1020  -26.3550 C.ar      1 RCP        -0.0594
     36 C9         -5.5300   35.2390  -27.1290 C.ar      1 RCP        -0.0511
     37 H1         -5.7773   33.7927  -17.6616 H         1 RCP         0.0545
     38 H2         -5.6908   33.7438  -15.8680 H         1 RCP         0.0545
     39 H3         -6.2248   36.0150  -16.4667 H         1 RCP         0.0580
     40 H4         -4.9475   36.0547  -17.7290 H         1 RCP         0.0580
     41 H5         -2.2189   36.2839  -15.4559 H         1 RCP         0.0580
     42 H6         -2.7401   36.1847  -17.1721 H         1 RCP         0.0580
     43 H7         -2.7434   33.9512  -15.0775 H         1 RCP         0.0545
     44 H8         -1.7747   34.0397  -16.5876 H         1 RCP         0.0545
     45 H9         -5.3689   32.6062  -18.7485 H         1 RCP         0.0591
     46 H10        -3.0937   30.6768  -19.4711 H         1 RCP         0.0843
     47 H11        -3.4972   32.2145  -20.3075 H         1 RCP         0.0843
     48 H12        -5.8900   31.1104  -16.9365 H         1 RCP         0.0296
     49 H13        -4.4469   30.0949  -17.2723 H         1 RCP         0.0296
     50 H14        -6.9986   30.3480  -18.9294 H         1 RCP         0.0318
     51 H15        -6.3574   28.8930  -18.0935 H         1 RCP         0.0318
     52 H16        -5.9590   28.8348  -20.5676 H         1 RCP         0.0814
     53 H17        -4.4292   28.8261  -19.6262 H         1 RCP         0.0814
     54 H18        -5.6800   31.2342  -20.7509 H         1 RCP         0.2038
     55 H19        -3.3325   29.7775  -21.7175 H         1 RCP         0.0852
     56 H20        -3.2473   32.2452  -22.0106 H         1 RCP         0.0339
     57 H21        -4.8330   32.1910  -22.8528 H         1 RCP         0.0339
     58 H22        -2.2040   30.9027  -23.7559 H         1 RCP         0.0523
     59 H23        -3.0812   32.2595  -24.5410 H         1 RCP         0.0523
     60 H24        -6.1031   30.0550  -22.9850 H         1 RCP         0.0339
     61 H25        -5.4387   28.5647  -22.2337 H         1 RCP         0.0339
     62 H26        -5.2255   28.6318  -24.7582 H         1 RCP         0.0523
     63 H27        -3.6593   28.4467  -23.8983 H         1 RCP         0.0523
     64 H28        -2.0531   30.1187  -27.0370 H         1 RCP         0.0620
     65 H29        -0.0012   30.4144  -28.3819 H         1 RCP         0.0635
     66 H30         0.4139   32.5566  -29.5546 H         1 RCP         0.0619
     67 H31        -1.2290   34.3995  -29.3708 H         1 RCP         0.0639
     68 H32        -3.2895   35.2757  -28.5148 H         1 RCP         0.0709
     69 H33        -6.2286   31.9116  -25.2988 H         1 RCP         0.0620
     70 H34        -7.8221   33.7901  -25.0920 H         1 RCP         0.0635
     71 H35        -7.3780   35.9267  -26.2664 H         1 RCP         0.0619
     72 H36        -5.3332   36.1721  -27.6445 H         1 RCP         0.0639
@<TRIPOS>BOND
     1    1    2 1  
     2    1    6 1  
     3    2    3 1  
     4    3    4 1  
     5    4    5 1  
     6    5    6 1  
     7    6    7 am 
     8    7    8 2  
     9    7    9 1  
    10    9   10 1  
    11    9   11 1  
    12   10   14 1  
    13   11   12 1  
    14   12   13 1  
    15   13   14 1  
    16   14   15 1  
    17   15   16 1  
    18   15   18 1  
    19   16   17 1  
    20   17   20 1  
    21   18   19 1  
    22   19   20 1  
    23   20   21 am 
    24   21   22 2  
    25   21   23 1  
    26   23   24 ar 
    27   23   32 ar 
    28   24   25 ar 
    29   24   29 ar 
    30   25   26 ar 
    31   26   27 ar 
    32   27   28 ar 
    33   28   29 ar 
    34   29   30 ar 
    35   30   31 ar 
    36   31   32 ar 
    37   31   36 ar 
    38   32   33 ar 
    39   33   34 ar 
    40   34   35 ar 
    41   35   36 ar 
    42    1   37 1  
    43    1   38 1  
    44    2   39 1  
    45    2   40 1  
    46    4   41 1  
    47    4   42 1  
    48    5   43 1  
    49    5   44 1  
    50    9   45 1  
    51   10   46 1  
    52   10   47 1  
    53   11   48 1  
    54   11   49 1  
    55   12   50 1  
    56   12   51 1  
    57   13   52 1  
    58   13   53 1  
    59   14   54 1  
    60   15   55 1  
    61   16   56 1  
    62   16   57 1  
    63   17   58 1  
    64   17   59 1  
    65   18   60 1  
    66   18   61 1  
    67   19   62 1  
    68   19   63 1  
    69   25   64 1  
    70   26   65 1  
    71   27   66 1  
    72   28   67 1  
    73   30   68 1  
    74   33   69 1  
    75   34   70 1  
    76   35   71 1  
    77   36   72 1  
@<TRIPOS>SUBSTRUCTURE
     1 RCP         1

