### 
### Created by X-TOOL on Mon Sep 10 21:12:52 2018
### 

@<TRIPOS>MOLECULE
1w31_ligand
   17    16     1     0     0
SMALL
GAST_HUCK


@<TRIPOS>ATOM
      1 CA         21.2690   26.1910   14.9790 C.3       1 SHO         0.0003
      2 CB         19.8940   26.1860   15.6270 C.3       1 SHO        -0.0394
      3 CG         19.6810   24.9390   16.4600 C.3       1 SHO        -0.0282
      4 CD         19.7440   25.0730   17.9720 C.3       1 SHO         0.0443
      5 C          21.4000   27.3190   13.9710 C.2       1 SHO         0.0348
      6 O          20.3710   27.9430   13.6420 O.co2     1 SHO        -0.5690
      7 OE1        18.5190   24.6850   18.5710 O.3       1 SHO        -0.3950
      8 OXT        22.5290   27.5770   13.5110 O.co2     1 SHO        -0.5690
      9 H1         21.4264   25.2313   14.4651 H         1 SHO         0.0430
     10 H2         22.0328   26.3182   15.7603 H         1 SHO         0.0430
     11 H3         19.1269   26.2259   14.8396 H         1 SHO         0.0284
     12 H4         19.8004   27.0698   16.2752 H         1 SHO         0.0284
     13 H5         20.4513   24.2118   16.1636 H         1 SHO         0.0288
     14 H6         18.6863   24.5429   16.2078 H         1 SHO         0.0288
     15 H7         19.9543   26.1211   18.2312 H         1 SHO         0.0557
     16 H8         20.5506   24.4313   18.3561 H         1 SHO         0.0557
     17 H9         18.5854   24.7782   19.5141 H         1 SHO         0.2094
@<TRIPOS>BOND
     1    1    2 1  
     2    1    5 1  
     3    2    3 1  
     4    3    4 1  
     5    4    7 1  
     6    5    6 ar 
     7    5    8 ar 
     8    1    9 1  
     9    1   10 1  
    10    2   11 1  
    11    2   12 1  
    12    3   13 1  
    13    3   14 1  
    14    4   15 1  
    15    4   16 1  
    16    7   17 1  
@<TRIPOS>SUBSTRUCTURE
     1 SHO         1

