### 
### Created by X-TOOL on Mon Sep 10 21:12:51 2018
### 

@<TRIPOS>MOLECULE
1w3j_ligand
   22    22     1     0     0
SMALL
GAST_HUCK


@<TRIPOS>ATOM
      1 C6         -3.1290    9.5980    8.7350 C.3       1 OXZ         0.0782
      2 C5         -2.1270   10.7340    8.9770 C.3       1 OXZ         0.1535
      3 C4         -0.9830   10.7330    7.9360 C.3       1 OXZ         0.1194
      4 C3         -0.0710   11.9460    8.2280 C.3       1 OXZ         0.1241
      5 C2          0.5250   11.8380    9.6390 C.3       1 OXZ         0.0256
      6 O6         -2.5250    8.3170    8.9190 O.3       1 OXZ        -0.3922
      7 O5         -1.5250   10.5350   10.2500 O.3       1 OXZ        -0.3215
      8 O4         -1.4550   10.7730    6.6030 O.3       1 OXZ        -0.3862
      9 O3          0.9780   12.1350    7.2910 O.3       1 OXZ        -0.3838
     10 N1         -0.5220   11.5910   10.6400 N.4       1 OXZ         0.3939
     11 H1         -3.5079    9.6694    7.7048 H         1 OXZ         0.0586
     12 H2         -3.9655    9.7031    9.4415 H         1 OXZ         0.0586
     13 H3         -2.6543   11.6989    8.9474 H         1 OXZ         0.0702
     14 H4         -0.3987    9.8095    8.0611 H         1 OXZ         0.0650
     15 H5         -0.7062   12.8433    8.1926 H         1 OXZ         0.0674
     16 H6          1.0408   12.7782    9.8837 H         1 OXZ         0.0850
     17 H7          1.2460   11.0076    9.6615 H         1 OXZ         0.0850
     18 H8         -1.8043    8.2173    8.3082 H         1 OXZ         0.2095
     19 H9         -2.0127   10.0207    6.4430 H         1 OXZ         0.2100
     20 H10         0.6120   12.2022    6.4169 H         1 OXZ         0.2101
     21 H11        -1.0185   12.4543   10.7955 H         1 OXZ         0.2348
     22 H12        -0.0764   11.3007   11.4963 H         1 OXZ         0.2348
@<TRIPOS>BOND
     1    1    2 1  
     2    1    6 1  
     3    2    3 1  
     4    2    7 1  
     5    3    4 1  
     6    3    8 1  
     7    4    5 1  
     8    4    9 1  
     9    5   10 1  
    10    7   10 1  
    11    1   11 1  
    12    1   12 1  
    13    2   13 1  
    14    3   14 1  
    15    4   15 1  
    16    5   16 1  
    17    5   17 1  
    18    6   18 1  
    19    8   19 1  
    20    9   20 1  
    21   10   21 1  
    22   10   22 1  
@<TRIPOS>SUBSTRUCTURE
     1 OXZ         1

