### 
### Created by X-TOOL on Mon Sep 10 21:12:51 2018
### 

@<TRIPOS>MOLECULE
1w3k_ligand
   43    44     1     0     0
SMALL
GAST_HUCK


@<TRIPOS>ATOM
      1 C2         61.3170   47.7350   36.3720 C.3       1 BGC         0.1341
      2 C3         60.6690   48.6770   37.3990 C.3       1 BGC         0.1141
      3 C4         59.1680   48.4110   37.5300 C.3       1 BGC         0.1119
      4 C5         58.9480   46.9260   37.8160 C.3       1 BGC         0.1130
      5 C6         57.4890   46.5200   37.9400 C.3       1 BGC         0.0730
      6 C1         60.9700   46.2910   36.7050 C.3       1 BGC         0.1884
      7 O2         62.7210   47.9140   36.3200 O.3       1 BGC        -0.3841
      8 O3         60.8770   50.0310   37.0260 O.3       1 BGC        -0.3864
      9 O4         58.6050   49.1900   38.5770 O.3       1 BGC        -0.3865
     10 O5         59.5490   46.1750   36.7550 O.3       1 BGC        -0.3405
     11 O6         56.8470   46.7590   36.6990 O.3       1 BGC        -0.3924
     12 C6         63.3200   43.9820   37.3350 C.3       1 OXZ         0.0782
     13 C5         62.6850   43.5230   36.0370 C.3       1 OXZ         0.1538
     14 C4         61.2830   44.1120   35.8030 C.3       1 OXZ         0.1259
     15 C3         60.6870   43.5210   34.5170 C.3       1 OXZ         0.1245
     16 C2         60.6940   41.9790   34.5970 C.3       1 OXZ         0.0256
     17 O6         62.4830   43.6730   38.4460 O.3       1 OXZ        -0.3922
     18 O5         62.5750   42.1090   36.1740 O.3       1 OXZ        -0.3215
     19 O4         61.3510   45.5240   35.6570 O.3       1 OXZ        -0.3398
     20 O3         59.3770   43.9260   34.2980 O.3       1 OXZ        -0.3838
     21 N1         62.0470   41.5380   34.9520 N.4       1 OXZ         0.3939
     22 H1         60.9055   47.9712   35.3796 H         1 BGC         0.0671
     23 H2         61.1421   48.5025   38.3766 H         1 BGC         0.0648
     24 H3         58.6731   48.6754   36.5839 H         1 BGC         0.0647
     25 H4         59.4505   46.6815   38.7635 H         1 BGC         0.0647
     26 H5         57.0045   47.1144   38.7286 H         1 BGC         0.0584
     27 H6         57.4216   45.4515   38.1925 H         1 BGC         0.0584
     28 H7         61.4424   45.9702   37.6451 H         1 BGC         0.0938
     29 H8         62.9161   48.8200   36.1112 H         1 BGC         0.2101
     30 H9         61.8090   50.1963   36.9446 H         1 BGC         0.2100
     31 H10        57.6731   49.0148   38.6346 H         1 BGC         0.2100
     32 H11        57.2700   46.2455   36.0208 H         1 BGC         0.2095
     33 H12        63.4777   45.0699   37.2942 H         1 BGC         0.0586
     34 H13        64.2883   43.4756   37.4614 H         1 BGC         0.0586
     35 H14        63.3329   43.7858   35.1878 H         1 BGC         0.0702
     36 H15        60.6381   43.8630   36.6586 H         1 BGC         0.0654
     37 H16        61.3052   43.8454   33.6670 H         1 BGC         0.0674
     38 H17        60.4094   41.5555   33.6225 H         1 BGC         0.0850
     39 H18        59.9811   41.6439   35.3648 H         1 BGC         0.0850
     40 H19        62.8996   43.9688   39.2469 H         1 BGC         0.2095
     41 H20        59.0627   43.5509   33.4838 H         1 BGC         0.2101
     42 H21        62.6659   41.7883   34.1968 H         1 BGC         0.2348
     43 H22        62.0321   40.5355   35.0560 H         1 BGC         0.2348
@<TRIPOS>BOND
     1    1    2 1  
     2    6    1 1  
     3    1    7 1  
     4    2    3 1  
     5    2    8 1  
     6    4    3 1  
     7    3    9 1  
     8    4    5 1  
     9   10    4 1  
    10    5   11 1  
    11    6   10 1  
    12   19    6 1  
    13   13   12 1  
    14   12   17 1  
    15   14   13 1  
    16   13   18 1  
    17   14   15 1  
    18   14   19 1  
    19   15   16 1  
    20   15   20 1  
    21   16   21 1  
    22   18   21 1  
    23    1   22 1  
    24    2   23 1  
    25    3   24 1  
    26    4   25 1  
    27    5   26 1  
    28    5   27 1  
    29    6   28 1  
    30    7   29 1  
    31    8   30 1  
    32    9   31 1  
    33   11   32 1  
    34   12   33 1  
    35   12   34 1  
    36   13   35 1  
    37   14   36 1  
    38   15   37 1  
    39   16   38 1  
    40   16   39 1  
    41   17   40 1  
    42   20   41 1  
    43   21   42 1  
    44   21   43 1  
@<TRIPOS>SUBSTRUCTURE
     1 BGC         1

