### 
### Created by X-TOOL on Mon Sep 10 21:12:51 2018
### 

@<TRIPOS>MOLECULE
1w4l_ligand
   76    81     1     0     0
SMALL
GAST_HUCK


@<TRIPOS>ATOM
      1 C1          2.5360   67.5520   63.2280 C.2       1 GL8        -0.1053
      2 C2          2.7100   68.0920   62.0010 C.2       1 GL8        -0.0079
      3 C3          4.1320   68.3020   61.4100 C.3       1 GL8         0.1219
      4 C4          5.2970   68.3180   62.5910 C.3       1 GL8         0.0179
      5 C5          5.0440   67.0660   63.5100 C.3       1 GL8         0.0724
      6 C6          3.6920   67.1980   64.2430 C.3       1 GL8        -0.0162
      7 C7          4.4880   63.6460   63.6910 C.ar      1 GL8         0.2604
      8 C8          3.6700   62.9440   64.6380 C.ar      1 GL8         0.0677
      9 C9          2.8550   63.6770   65.5220 C.ar      1 GL8         0.0251
     10 C10         1.9870   65.7690   66.5040 C.2       1 GL8         0.0642
     11 C11         2.2390   68.2480   66.1490 C.3       1 GL8         0.0046
     12 C12         3.6250   68.2300   65.4320 C.3       1 GL8        -0.0786
     13 C13         4.4060   65.0350   63.6680 C.ar      1 GL8         0.2405
     14 C14         3.5790   65.7690   64.5550 C.ar      1 GL8         0.0248
     15 C15         2.8100   65.1200   65.4940 C.ar      1 GL8         0.0683
     16 C16         5.7100   61.6650   63.0940 C.3       1 GL8         0.0882
     17 C17         1.0430   67.1130   68.1070 C.3       1 GL8         0.0184
     18 C18         2.0370   67.4500   69.2870 C.3       1 GL8        -0.0366
     19 C19         3.3170   66.5040   69.3880 C.3       1 GL8        -0.0516
     20 C20         2.8790   65.0570   69.6490 C.3       1 GL8        -0.0530
     21 C21         4.1040   64.1260   69.7210 C.3       1 GL8        -0.0530
     22 C22         3.6160   62.6360   69.6090 C.3       1 GL8        -0.0509
     23 C23         3.0940   62.1600   71.0020 C.3       1 GL8        -0.0285
     24 C24         1.7820   61.6910   70.6310 C.3       1 GL8         0.0565
     25 C25        -0.1760   61.7490   72.0520 C.2       1 GL8         0.2400
     26 C26        -0.9030   60.8300   72.7950 C.ar      1 GL8         0.0732
     27 C27        -2.1520   60.9480   73.4290 C.ar      1 GL8        -0.0372
     28 C28        -2.6640   59.7760   74.0900 C.ar      1 GL8        -0.0523
     29 C29        -1.9120   58.5710   74.0890 C.ar      1 GL8        -0.0523
     30 C30        -0.6410   58.4900   73.4420 C.ar      1 GL8        -0.0372
     31 C31        -0.1780   59.6540   72.7990 C.ar      1 GL8         0.0732
     32 C32         0.9650   59.8740   72.0410 C.2       1 GL8         0.2400
     33 O1          5.1150   65.8430   62.7910 O.3       1 GL8        -0.2584
     34 O2          5.4730   63.0580   62.8690 O.3       1 GL8        -0.2428
     35 O3          4.1590   67.1110   60.5120 O.3       1 GL8        -0.3625
     36 O25        -0.4610   62.9940   71.8990 O.2       1 GL8        -0.3670
     37 O32         1.9030   59.0260   71.8380 O.2       1 GL8        -0.3670
     38 N1          1.7570   66.9850   66.8270 N.2       1 GL8        -0.3580
     39 N2          0.9000   61.1240   71.6040 N.am      1 GL8        -0.1844
     40 H1          1.5142   67.3441   63.5421 H         1 GL8         0.0365
     41 H2          1.8389   68.3849   61.4167 H         1 GL8         0.1365
     42 H3          4.2038   69.2367   60.8345 H         1 GL8         0.0976
     43 H4          5.2209   69.2418   63.1832 H         1 GL8         0.0358
     44 H5          6.2964   68.2556   62.1356 H         1 GL8         0.0358
     45 H6          5.8385   67.0475   64.2705 H         1 GL8         0.0526
     46 H7          3.6793   61.8606   64.6726 H         1 GL8         0.0915
     47 H8          2.2453   63.1439   66.2425 H         1 GL8         0.1065
     48 H9          1.4441   65.0583   67.1254 H         1 GL8         0.1260
     49 H10         1.4866   68.5173   65.3931 H         1 GL8         0.0456
     50 H11         2.2826   69.0325   66.9188 H         1 GL8         0.0456
     51 H12         3.8267   69.2357   65.0346 H         1 GL8         0.0097
     52 H13         4.3972   67.9654   66.1693 H         1 GL8         0.0097
     53 H14         6.4906   61.3099   62.4051 H         1 GL8         0.0645
     54 H15         4.7817   61.1019   62.9177 H         1 GL8         0.0645
     55 H16         6.0400   61.5122   64.1321 H         1 GL8         0.0645
     56 H17         0.2994   67.9193   68.0235 H         1 GL8         0.0471
     57 H18         0.5320   66.1645   68.3287 H         1 GL8         0.0471
     58 H19         1.4810   67.3723   70.2330 H         1 GL8         0.0281
     59 H20         2.3878   68.4837   69.1517 H         1 GL8         0.0281
     60 H21         3.9583   66.8453   70.2140 H         1 GL8         0.0266
     61 H22         3.8796   66.5499   68.4439 H         1 GL8         0.0266
     62 H23         2.2202   64.7256   68.8328 H         1 GL8         0.0265
     63 H24         2.3329   65.0107   70.6027 H         1 GL8         0.0265
     64 H25         4.6244   64.2734   70.6788 H         1 GL8         0.0265
     65 H26         4.7903   64.3534   68.8920 H         1 GL8         0.0265
     66 H27         4.4538   61.9974   69.2923 H         1 GL8         0.0266
     67 H28         2.8043   62.5694   68.8697 H         1 GL8         0.0266
     68 H29         3.0423   62.9887   71.7235 H         1 GL8         0.0288
     69 H30         3.7145   61.3515   71.4160 H         1 GL8         0.0288
     70 H31         1.9315   60.9221   69.8587 H         1 GL8         0.0571
     71 H32         1.2541   62.5516   70.1943 H         1 GL8         0.0571
     72 H33        -2.7052   61.8802   73.4206 H         1 GL8         0.0682
     73 H34        -3.6254   59.8132   74.5895 H         1 GL8         0.0662
     74 H35        -2.3104   57.6956   74.5890 H         1 GL8         0.0662
     75 H36        -0.0599   57.5749   73.4459 H         1 GL8         0.0682
     76 H37         4.0339   66.3235   61.0285 H         1 GL8         0.2169
@<TRIPOS>BOND
     1    1    2 2  
     2    6    1 1  
     3    2    3 1  
     4    4    3 1  
     5    3   35 1  
     6    5    4 1  
     7    6    5 1  
     8    5   33 1  
     9   12    6 1  
    10    6   14 1  
    11    8    7 ar 
    12   13    7 ar 
    13    7   34 1  
    14    9    8 ar 
    15   15    9 ar 
    16   10   15 1  
    17   38   10 2  
    18   11   12 1  
    19   38   11 1  
    20   14   13 ar 
    21   13   33 1  
    22   15   14 ar 
    23   34   16 1  
    24   18   17 1  
    25   17   38 1  
    26   19   18 1  
    27   20   19 1  
    28   21   20 1  
    29   22   21 1  
    30   23   22 1  
    31   24   23 1  
    32   39   24 1  
    33   25   26 1  
    34   25   36 2  
    35   25   39 am 
    36   26   27 ar 
    37   26   31 ar 
    38   27   28 ar 
    39   28   29 ar 
    40   29   30 ar 
    41   30   31 ar 
    42   31   32 1  
    43   32   37 2  
    44   32   39 am 
    45    1   40 1  
    46    2   41 1  
    47    3   42 1  
    48    4   43 1  
    49    4   44 1  
    50    5   45 1  
    51    8   46 1  
    52    9   47 1  
    53   10   48 1  
    54   11   49 1  
    55   11   50 1  
    56   12   51 1  
    57   12   52 1  
    58   16   53 1  
    59   16   54 1  
    60   16   55 1  
    61   17   56 1  
    62   17   57 1  
    63   18   58 1  
    64   18   59 1  
    65   19   60 1  
    66   19   61 1  
    67   20   62 1  
    68   20   63 1  
    69   21   64 1  
    70   21   65 1  
    71   22   66 1  
    72   22   67 1  
    73   23   68 1  
    74   23   69 1  
    75   24   70 1  
    76   24   71 1  
    77   27   72 1  
    78   28   73 1  
    79   29   74 1  
    80   30   75 1  
    81   35   76 1  
@<TRIPOS>SUBSTRUCTURE
     1 GL8         1

