### 
### Created by X-TOOL on Mon Sep 10 21:12:52 2018
### 

@<TRIPOS>MOLECULE
1w51_ligand
   81    83     1     0     0
SMALL
GAST_HUCK


@<TRIPOS>ATOM
      1 C1         72.3560   46.9920    3.5200 C.3       1 L01        -0.0634
      2 C2         73.5900   46.1720    3.1170 C.3       1 L01        -0.0354
      3 C3         73.8500   44.9180    3.9660 C.3       1 L01         0.0331
      4 N4         73.1400   44.9030    5.2580 N.am      1 L01        -0.2723
      5 C5         73.6150   45.7090    6.3930 C.3       1 L01         0.0331
      6 C6         74.8110   44.9960    7.0480 C.3       1 L01        -0.0354
      7 C7         74.3920   44.4000    8.3940 C.3       1 L01        -0.0634
      8 C8         72.0920   44.0820    5.3510 C.2       1 L01         0.2085
      9 O9         72.0000   43.2020    4.5120 O.2       1 L01        -0.3844
     10 C10        71.0710   44.1850    6.4150 C.ar      1 L01         0.0556
     11 C11        70.7120   43.0090    7.0590 C.ar      1 L01        -0.0378
     12 C12        69.7650   43.0180    8.0580 C.ar      1 L01        -0.0507
     13 C13        69.1430   44.1900    8.4100 C.ar      1 L01        -0.0378
     14 C14        69.4930   45.3780    7.7700 C.ar      1 L01         0.0554
     15 C15        70.4440   45.3830    6.7560 C.ar      1 L01        -0.0220
     16 C16        68.8040   46.5900    8.1880 C.2       1 L01         0.2065
     17 O17        68.4820   46.7120    9.3610 O.2       1 L01        -0.3846
     18 N18        68.5230   47.5140    7.2450 N.am      1 L01        -0.2784
     19 C19        68.0950   48.8620    7.5410 C.3       1 L01         0.0818
     20 C21        68.9470   49.8150    6.7290 C.3       1 L01         0.0065
     21 C22        70.4250   49.6920    7.0380 C.ar      1 L01        -0.0408
     22 C23        70.9080   49.8850    8.3150 C.ar      1 L01        -0.0603
     23 C24        72.2740   49.8120    8.5500 C.ar      1 L01        -0.0686
     24 C25        73.1720   49.5390    7.5460 C.ar      1 L01        -0.0687
     25 C26        72.7020   49.3430    6.2760 C.ar      1 L01        -0.0686
     26 C27        71.3350   49.4410    6.0270 C.ar      1 L01        -0.0603
     27 C28        66.6480   48.9840    7.1130 C.3       1 L01         0.1192
     28 O30        66.2790   50.3180    7.4100 O.3       1 L01        -0.3841
     29 C31        65.7770   47.9490    7.8560 C.3       1 L01        -0.0033
     30 N32        64.3220   48.1080    7.6170 N.4       1 L01         0.2408
     31 C35        63.4920   47.7250    8.7910 C.3       1 L01        -0.0023
     32 C36        63.4630   48.7380    9.9420 C.ar      1 L01        -0.0075
     33 C37        63.6040   48.3050   11.2600 C.ar      1 L01        -0.0664
     34 C38        63.5950   49.2070   12.3280 C.ar      1 L01        -0.0770
     35 C39        63.4300   50.5760   12.1090 C.ar      1 L01        -0.0401
     36 C40        63.2720   51.0350   10.7950 C.ar      1 L01         0.0842
     37 O41        63.0860   52.3420   10.4320 O.3       1 L01        -0.3230
     38 C42        63.1810   53.2840   11.5090 C.3       1 L01         0.0592
     39 C43        63.2940   50.1070    9.7430 C.ar      1 L01        -0.0272
     40 H1         72.2607   47.8623    2.8541 H         1 L01         0.0230
     41 H2         72.4674   47.3357    4.5589 H         1 L01         0.0230
     42 H3         71.4558   46.3655    3.4356 H         1 L01         0.0230
     43 H4         74.4722   46.8244    3.1953 H         1 L01         0.0282
     44 H5         73.4605   45.8541    2.0719 H         1 L01         0.0282
     45 H6         74.9299   44.8546    4.1655 H         1 L01         0.0522
     46 H7         73.5317   44.0381    3.3877 H         1 L01         0.0522
     47 H8         72.8054   45.8229    7.1289 H         1 L01         0.0522
     48 H9         73.9278   46.7011    6.0355 H         1 L01         0.0522
     49 H10        75.6239   45.7197    7.2074 H         1 L01         0.0282
     50 H11        75.1618   44.1903    6.3863 H         1 L01         0.0282
     51 H12        75.2528   43.8928    8.8543 H         1 L01         0.0230
     52 H13        73.5800   43.6747    8.2370 H         1 L01         0.0230
     53 H14        74.0421   45.2041    9.0581 H         1 L01         0.0230
     54 H15        71.1817   42.0749    6.7726 H         1 L01         0.0703
     55 H16        69.5096   42.0965    8.5685 H         1 L01         0.0640
     56 H17        68.3826   44.1917    9.1826 H         1 L01         0.0703
     57 H18        70.6939   46.3025    6.2392 H         1 L01         0.0723
     58 H19        68.6165   47.2501    6.2850 H         1 L01         0.1851
     59 H20        68.1979   49.0771    8.6148 H         1 L01         0.0606
     60 H21        68.6272   50.8447    6.9469 H         1 L01         0.0449
     61 H22        68.7926   49.6013    5.6611 H         1 L01         0.0449
     62 H23        70.2248   50.0925    9.1307 H         1 L01         0.0557
     63 H24        72.6438   49.9752    9.5558 H         1 L01         0.0599
     64 H25        74.2337   49.4800    7.7565 H         1 L01         0.0559
     65 H26        73.3886   49.1131    5.4693 H         1 L01         0.0599
     66 H27        70.9742   49.3171    5.0123 H         1 L01         0.0557
     67 H28        66.5580   48.8076    6.0310 H         1 L01         0.0672
     68 H29        66.8368   50.9151    6.9254 H         1 L01         0.2101
     69 H30        65.9640   48.0496    8.9353 H         1 L01         0.0840
     70 H31        66.0748   46.9434    7.5244 H         1 L01         0.0840
     71 H32        64.0599   47.5273    6.8358 H         1 L01         0.2029
     72 H33        64.1371   49.0737    7.3949 H         1 L01         0.2029
     73 H34        63.8824   46.7755    9.1859 H         1 L01         0.0978
     74 H35        62.4590   47.5800    8.4420 H         1 L01         0.0978
     75 H36        63.7231   47.2464   11.4607 H         1 L01         0.0466
     76 H37        63.7178   48.8385   13.3400 H         1 L01         0.0572
     77 H38        63.4243   51.2711   12.9408 H         1 L01         0.0486
     78 H39        63.0184   54.3008   11.1221 H         1 L01         0.0577
     79 H40        64.1802   53.2205   11.9647 H         1 L01         0.0577
     80 H41        62.4173   53.0534   12.2663 H         1 L01         0.0577
     81 H42        63.1741   50.4714    8.7292 H         1 L01         0.0480
@<TRIPOS>BOND
     1    1    2 1  
     2    2    3 1  
     3    3    4 1  
     4    4    5 1  
     5    4    8 am 
     6    5    6 1  
     7    6    7 1  
     8    8    9 2  
     9    8   10 1  
    10   10   11 ar 
    11   10   15 ar 
    12   11   12 ar 
    13   12   13 ar 
    14   13   14 ar 
    15   14   15 ar 
    16   14   16 1  
    17   16   17 2  
    18   16   18 am 
    19   18   19 1  
    20   19   20 1  
    21   19   27 1  
    22   20   21 1  
    23   21   22 ar 
    24   21   26 ar 
    25   22   23 ar 
    26   23   24 ar 
    27   24   25 ar 
    28   25   26 ar 
    29   27   28 1  
    30   27   29 1  
    31   29   30 1  
    32   30   31 1  
    33   31   32 1  
    34   32   33 ar 
    35   32   39 ar 
    36   33   34 ar 
    37   34   35 ar 
    38   35   36 ar 
    39   36   37 1  
    40   36   39 ar 
    41   37   38 1  
    42    1   40 1  
    43    1   41 1  
    44    1   42 1  
    45    2   43 1  
    46    2   44 1  
    47    3   45 1  
    48    3   46 1  
    49    5   47 1  
    50    5   48 1  
    51    6   49 1  
    52    6   50 1  
    53    7   51 1  
    54    7   52 1  
    55    7   53 1  
    56   11   54 1  
    57   12   55 1  
    58   13   56 1  
    59   15   57 1  
    60   18   58 1  
    61   19   59 1  
    62   20   60 1  
    63   20   61 1  
    64   22   62 1  
    65   23   63 1  
    66   24   64 1  
    67   25   65 1  
    68   26   66 1  
    69   27   67 1  
    70   28   68 1  
    71   29   69 1  
    72   29   70 1  
    73   30   71 1  
    74   30   72 1  
    75   31   73 1  
    76   31   74 1  
    77   33   75 1  
    78   34   76 1  
    79   35   77 1  
    80   38   78 1  
    81   38   79 1  
    82   38   80 1  
    83   39   81 1  
@<TRIPOS>SUBSTRUCTURE
     1 L01         1

