### 
### Created by X-TOOL on Mon Sep 10 21:12:51 2018
### 

@<TRIPOS>MOLECULE
1w5w_ligand
   88    93     1     0     0
SMALL
GAST_HUCK


@<TRIPOS>ATOM
      1 C01        16.5820   21.9310    8.8040 C.ar      1 BE4         0.0126
      2 C02        18.0150   21.6930    8.5450 C.ar      1 BE4        -0.0614
      3 C03        18.6650   20.4460    8.8960 C.ar      1 BE4        -0.0389
      4 C04        17.9000   19.3600    9.5300 C.ar      1 BE4         0.1231
      5 C05        16.4570   19.5590    9.8060 C.ar      1 BE4        -0.0014
      6 C06        15.8100   20.8220    9.4490 C.ar      1 BE4         0.1337
      7 C07         9.8880   23.7850    2.2390 C.ar      1 BE4         0.0126
      8 C08         8.7840   22.8960    2.6600 C.ar      1 BE4         0.1337
      9 C09         7.3800   23.4020    2.6250 C.ar      1 BE4        -0.0014
     10 C10         7.1210   24.8020    2.1630 C.ar      1 BE4         0.1231
     11 C11         8.2690   25.6600    1.7500 C.ar      1 BE4        -0.0389
     12 C12         9.6040   25.1450    1.7960 C.ar      1 BE4        -0.0614
     13 C13        11.3380   23.3620    2.2490 C.3       1 BE4         0.0841
     14 O14        11.8420   23.0150    3.5620 O.3       1 BE4        -0.3424
     15 C15        11.8890   24.1000    4.6260 C.3       1 BE4         0.1777
     16 C16        12.9460   23.8690    5.6740 C.3       1 BE4         0.1289
     17 C17        14.2490   23.6340    5.0210 C.3       1 BE4         0.1289
     18 C18        15.1920   22.8530    6.0190 C.3       1 BE4         0.1777
     19 C19        15.1570   21.3490    5.8340 C.2       1 BE4         0.2101
     20 O20        14.1050   20.7100    6.0550 O.2       1 BE4        -0.3940
     21 N21        16.3030   20.7060    5.4450 N.am      1 BE4        -0.2688
     22 O22        14.8980   23.1810    7.4420 O.3       1 BE4        -0.3424
     23 C23        16.0160   23.2960    8.3780 C.3       1 BE4         0.0841
     24 O24        14.8000   24.8910    4.5700 O.3       1 BE4        -0.3840
     25 O25        13.1150   25.0360    6.5790 O.3       1 BE4        -0.3840
     26 C26        10.6680   24.2460    5.4690 C.2       1 BE4         0.2101
     27 O27        10.3060   23.2750    6.1790 O.2       1 BE4        -0.3940
     28 N28         9.9890   25.4230    5.4150 N.am      1 BE4        -0.2688
     29 C29         8.7800   25.6710    6.1740 C.3       1 BE4         0.1007
     30 C30         9.0860   26.4100    7.4320 C.ar      1 BE4        -0.0133
     31 C31         7.9520   27.2730    7.7780 C.ar      1 BE4        -0.0361
     32 C32        10.2930   26.3740    8.2900 C.ar      1 BE4        -0.0646
     33 C33        10.3370   27.2330    9.5150 C.ar      1 BE4        -0.0754
     34 C34         9.1820   28.0890    9.8330 C.ar      1 BE4        -0.0755
     35 C35         7.7220   26.6120    5.5360 C.3       1 BE4         0.0951
     36 O36         8.4330   27.6510    4.8380 O.3       1 BE4        -0.3857
     37 C37         7.9800   28.1230    8.9790 C.ar      1 BE4        -0.0667
     38 C38         6.8910   27.1130    6.7550 C.3       1 BE4         0.0085
     39 C39        16.4110   19.2780    5.2440 C.3       1 BE4         0.1007
     40 C40        16.3130   18.8900    3.7700 C.ar      1 BE4        -0.0133
     41 C41        17.2530   17.8230    3.4810 C.ar      1 BE4        -0.0361
     42 C42        15.4530   19.4300    2.7050 C.ar      1 BE4        -0.0646
     43 C43        15.5650   18.8630    1.3240 C.ar      1 BE4        -0.0754
     44 C44        16.5300   17.7860    1.0740 C.ar      1 BE4        -0.0755
     45 C45        17.8180   18.7330    5.6140 C.3       1 BE4         0.0951
     46 O46        18.7870   19.7730    5.3210 O.3       1 BE4        -0.3857
     47 C47        17.3850   17.2460    2.1300 C.ar      1 BE4        -0.0667
     48 C48        17.9840   17.4790    4.7430 C.3       1 BE4         0.0085
     49 F49         5.7710   25.3180    2.1170 F         1 BE4        -0.1903
     50 F50        18.5370   18.1490    9.8660 F         1 BE4        -0.1903
     51 F51        14.4250   21.0040    9.7140 F         1 BE4        -0.1900
     52 F52         9.0560   21.6000    3.0860 F         1 BE4        -0.1900
     53 H1         18.6005   22.4761    8.0771 H         1 BE4         0.0537
     54 H2         19.7209   20.3123    8.6904 H         1 BE4         0.0552
     55 H3         15.8808   18.7683   10.2726 H         1 BE4         0.0572
     56 H4          6.5587   22.7638    2.9302 H         1 BE4         0.0572
     57 H5          8.0922   26.6755    1.4144 H         1 BE4         0.0552
     58 H6         10.4261   25.7834    1.4933 H         1 BE4         0.0537
     59 H7         11.9430   24.1917    1.8546 H         1 BE4         0.0711
     60 H8         11.4469   22.4850    1.5940 H         1 BE4         0.0711
     61 H9         12.0839   25.0491    4.1051 H         1 BE4         0.0870
     62 H10        12.6646   22.9881    6.2696 H         1 BE4         0.0674
     63 H11        14.0914   22.9990    4.1367 H         1 BE4         0.0674
     64 H12        16.2195   23.1841    5.8079 H         1 BE4         0.0870
     65 H13        17.1197   21.2618    5.2897 H         1 BE4         0.1881
     66 H14        16.8186   23.8742    7.8968 H         1 BE4         0.0711
     67 H15        15.6687   23.8278    9.2761 H         1 BE4         0.0711
     68 H16        14.9520   25.4557    5.3187 H         1 BE4         0.2102
     69 H17        13.7835   24.8402    7.2250 H         1 BE4         0.2102
     70 H18        10.3399   26.1501    4.8249 H         1 BE4         0.1881
     71 H19         8.3197   24.6965    6.3942 H         1 BE4         0.0732
     72 H20        11.1311   25.7357    8.0348 H         1 BE4         0.0538
     73 H21        11.2082   27.2250   10.1599 H         1 BE4         0.0541
     74 H22         9.2161   28.7117   10.7197 H         1 BE4         0.0541
     75 H23         7.0734   26.0730    4.8297 H         1 BE4         0.0659
     76 H24         7.8097   28.2445    4.4358 H         1 BE4         0.2103
     77 H25         7.1382   28.7583    9.2297 H         1 BE4         0.0537
     78 H26         6.3925   28.0692    6.5378 H         1 BE4         0.0439
     79 H27         6.1409   26.3704    7.0644 H         1 BE4         0.0439
     80 H28        15.6291   18.7776    5.8342 H         1 BE4         0.0732
     81 H29        14.7489   20.2264    2.9173 H         1 BE4         0.0538
     82 H30        14.9430   19.2421    0.5212 H         1 BE4         0.0541
     83 H31        16.6116   17.3773    0.0733 H         1 BE4         0.0541
     84 H32        17.8766   18.4654    6.6793 H         1 BE4         0.0659
     85 H33        19.6582   19.4632    5.5394 H         1 BE4         0.2103
     86 H34        18.0914   16.4492    1.9271 H         1 BE4         0.0537
     87 H35        19.0467   17.2810    4.5392 H         1 BE4         0.0439
     88 H36        17.5343   16.6011    5.2298 H         1 BE4         0.0439
@<TRIPOS>BOND
     1    1    2 ar 
     2    1    6 ar 
     3   23    1 1  
     4    2    3 ar 
     5    3    4 ar 
     6    5    4 ar 
     7    4   50 1  
     8    6    5 ar 
     9    6   51 1  
    10    7    8 ar 
    11    7   12 ar 
    12   13    7 1  
    13    8    9 ar 
    14    8   52 1  
    15    9   10 ar 
    16   11   10 ar 
    17   10   49 1  
    18   12   11 ar 
    19   14   13 1  
    20   15   14 1  
    21   16   15 1  
    22   15   26 1  
    23   17   16 1  
    24   16   25 1  
    25   18   17 1  
    26   17   24 1  
    27   18   19 1  
    28   22   18 1  
    29   19   20 2  
    30   19   21 am 
    31   21   39 1  
    32   22   23 1  
    33   26   27 2  
    34   26   28 am 
    35   28   29 1  
    36   29   30 1  
    37   29   35 1  
    38   30   31 ar 
    39   30   32 ar 
    40   31   37 ar 
    41   31   38 1  
    42   32   33 ar 
    43   33   34 ar 
    44   34   37 ar 
    45   35   36 1  
    46   35   38 1  
    47   39   40 1  
    48   39   45 1  
    49   40   41 ar 
    50   40   42 ar 
    51   41   47 ar 
    52   41   48 1  
    53   42   43 ar 
    54   43   44 ar 
    55   44   47 ar 
    56   45   46 1  
    57   45   48 1  
    58    2   53 1  
    59    3   54 1  
    60    5   55 1  
    61    9   56 1  
    62   11   57 1  
    63   12   58 1  
    64   13   59 1  
    65   13   60 1  
    66   15   61 1  
    67   16   62 1  
    68   17   63 1  
    69   18   64 1  
    70   21   65 1  
    71   23   66 1  
    72   23   67 1  
    73   24   68 1  
    74   25   69 1  
    75   28   70 1  
    76   29   71 1  
    77   32   72 1  
    78   33   73 1  
    79   34   74 1  
    80   35   75 1  
    81   36   76 1  
    82   37   77 1  
    83   38   78 1  
    84   38   79 1  
    85   39   80 1  
    86   42   81 1  
    87   43   82 1  
    88   44   83 1  
    89   45   84 1  
    90   46   85 1  
    91   47   86 1  
    92   48   87 1  
    93   48   88 1  
@<TRIPOS>SUBSTRUCTURE
     1 BE4         1

