### 
### Created by X-TOOL on Mon Sep 10 21:12:51 2018
### 

@<TRIPOS>MOLECULE
1w5x_ligand
   88    93     1     0     0
SMALL
GAST_HUCK


@<TRIPOS>ATOM
      1 C01        16.5670   21.9590    8.7560 C.ar      1 BE5         0.0147
      2 C02        18.0130   21.7870    8.5230 C.ar      1 BE5        -0.0637
      3 C03        18.7110   20.5610    8.8610 C.ar      1 BE5        -0.0742
      4 C04        17.9830   19.4290    9.4550 C.ar      1 BE5        -0.0368
      5 C05        16.5300   19.5620    9.7020 C.ar      1 BE5         0.1588
      6 C06        15.8430   20.8000    9.3590 C.ar      1 BE5         0.1678
      7 C07         9.8110   23.8560    2.1860 C.ar      1 BE5         0.0147
      8 C08         8.7700   22.9280    2.6680 C.ar      1 BE5         0.1678
      9 C09         7.3420   23.3660    2.7040 C.ar      1 BE5         0.1588
     10 C10         6.9810   24.7480    2.2450 C.ar      1 BE5        -0.0368
     11 C11         8.0690   25.6530    1.7640 C.ar      1 BE5        -0.0742
     12 C12         9.4350   25.1990    1.7460 C.ar      1 BE5        -0.0637
     13 C13        11.2900   23.4910    2.1270 C.3       1 BE5         0.0850
     14 O14        11.7600   23.0610    3.4460 O.3       1 BE5        -0.3419
     15 C15        11.9360   24.0800    4.5760 C.3       1 BE5         0.1778
     16 C16        12.9970   23.6860    5.5660 C.3       1 BE5         0.1289
     17 C17        14.2820   23.4650    4.9150 C.3       1 BE5         0.1289
     18 C18        15.2290   22.7270    5.9590 C.3       1 BE5         0.1778
     19 C19        15.1860   21.2170    5.7920 C.2       1 BE5         0.2101
     20 O20        14.1280   20.5720    6.0030 O.2       1 BE5        -0.3940
     21 N21        16.3400   20.5850    5.4280 N.am      1 BE5        -0.2688
     22 O22        14.8860   23.0620    7.3730 O.3       1 BE5        -0.3419
     23 C23        15.9460   23.3040    8.3510 C.3       1 BE5         0.0850
     24 O24        14.8430   24.7450    4.5190 O.3       1 BE5        -0.3840
     25 O25        13.1370   24.7980    6.5430 O.3       1 BE5        -0.3840
     26 C26        10.6970   24.2170    5.3670 C.2       1 BE5         0.2101
     27 O27        10.2670   23.2360    6.0260 O.2       1 BE5        -0.3940
     28 N28        10.0490   25.4100    5.3700 N.am      1 BE5        -0.2688
     29 C29         8.8310   25.6050    6.1290 C.3       1 BE5         0.1007
     30 C30         9.1430   26.3030    7.4140 C.ar      1 BE5        -0.0133
     31 C31         8.0090   27.1450    7.8030 C.ar      1 BE5        -0.0361
     32 C32        10.3610   26.2470    8.2580 C.ar      1 BE5        -0.0646
     33 C33        10.4140   27.0640    9.5120 C.ar      1 BE5        -0.0754
     34 C34         9.2560   27.9000    9.8740 C.ar      1 BE5        -0.0755
     35 C35         7.7660   26.5710    5.5440 C.3       1 BE5         0.0951
     36 O36         8.4830   27.6460    4.8890 O.3       1 BE5        -0.3857
     37 C37         8.0440   27.9540    9.0340 C.ar      1 BE5        -0.0667
     38 C38         6.9400   27.0110    6.7890 C.3       1 BE5         0.0085
     39 C39        16.4420   19.1560    5.2500 C.3       1 BE5         0.1007
     40 C40        16.3600   18.7580    3.7820 C.ar      1 BE5        -0.0133
     41 C41        17.3050   17.6880    3.5100 C.ar      1 BE5        -0.0361
     42 C42        15.5120   19.2920    2.7050 C.ar      1 BE5        -0.0646
     43 C43        15.6360   18.7190    1.3300 C.ar      1 BE5        -0.0754
     44 C44        16.6010   17.6400    1.0960 C.ar      1 BE5        -0.0755
     45 C45        17.8460   18.6200    5.6380 C.3       1 BE5         0.0951
     46 O46        18.8120   19.6620    5.3430 O.3       1 BE5        -0.3857
     47 C47        17.4490   17.1030    2.1620 C.ar      1 BE5        -0.0667
     48 C48        18.0230   17.3530    4.7830 C.3       1 BE5         0.0085
     49 F49         6.3150   22.4500    3.1840 F         1 BE5        -0.1863
     50 F50        15.7780   18.4480   10.2910 F         1 BE5        -0.1863
     51 F51        14.3510   20.9740    9.5930 F         1 BE5        -0.1901
     52 F52         9.1430   21.5600    3.1210 F         1 BE5        -0.1901
     53 H1         18.5735   22.6046    8.0842 H         1 BE5         0.0513
     54 H2         19.7757   20.4785    8.6747 H         1 BE5         0.0555
     55 H3         18.5027   18.5119    9.7078 H         1 BE5         0.0536
     56 H4          5.9505   25.0839    2.2619 H         1 BE5         0.0536
     57 H5          7.8285   26.6550    1.4274 H         1 BE5         0.0555
     58 H6         10.2083   25.8730    1.3957 H         1 BE5         0.0513
     59 H7         11.8681   24.3695    1.8044 H         1 BE5         0.0717
     60 H8         11.4334   22.6727    1.4061 H         1 BE5         0.0717
     61 H9         12.1989   25.0490    4.1268 H         1 BE5         0.0870
     62 H10        12.6908   22.7656    6.0847 H         1 BE5         0.0674
     63 H11        14.1496   22.8336    4.0241 H         1 BE5         0.0674
     64 H12        16.2582   23.0648    5.7679 H         1 BE5         0.0870
     65 H13        17.1574   21.1409    5.2768 H         1 BE5         0.1881
     66 H14        16.7186   23.9482    7.9060 H         1 BE5         0.0717
     67 H15        15.5235   23.7977    9.2386 H         1 BE5         0.0717
     68 H16        14.9413   25.2972    5.2857 H         1 BE5         0.2102
     69 H17        13.7910   24.5672    7.1922 H         1 BE5         0.2102
     70 H18        10.4205   26.1701    4.8369 H         1 BE5         0.1881
     71 H19         8.3800   24.6176    6.3067 H         1 BE5         0.0732
     72 H20        11.2005   25.6239    7.9715 H         1 BE5         0.0538
     73 H21        11.2934   27.0406   10.1454 H         1 BE5         0.0541
     74 H22         9.2954   28.4912   10.7817 H         1 BE5         0.0541
     75 H23         7.1144   26.0659    4.8158 H         1 BE5         0.0659
     76 H24         7.8606   28.2598    4.5172 H         1 BE5         0.2103
     77 H25         7.2002   28.5735    9.3156 H         1 BE5         0.0537
     78 H26         6.4257   27.9677    6.6152 H         1 BE5         0.0439
     79 H27         6.2039   26.2459    7.0765 H         1 BE5         0.0439
     80 H28        15.6538   18.6637    5.8386 H         1 BE5         0.0732
     81 H29        14.8067   20.0903    2.9059 H         1 BE5         0.0538
     82 H30        15.0226   19.0949    0.5191 H         1 BE5         0.0541
     83 H31        16.6897   17.2252    0.0984 H         1 BE5         0.0541
     84 H32        17.8962   18.3650    6.7068 H         1 BE5         0.0659
     85 H33        19.6828   19.3590    5.5719 H         1 BE5         0.2103
     86 H34        18.1567   16.3050    1.9686 H         1 BE5         0.0537
     87 H35        19.0877   17.1523    4.5930 H         1 BE5         0.0439
     88 H36        17.5672   16.4805    5.2738 H         1 BE5         0.0439
@<TRIPOS>BOND
     1    1    2 ar 
     2    1    6 ar 
     3   23    1 1  
     4    2    3 ar 
     5    3    4 ar 
     6    5    4 ar 
     7    6    5 ar 
     8    5   50 1  
     9    6   51 1  
    10    7    8 ar 
    11    7   12 ar 
    12   13    7 1  
    13    8    9 ar 
    14    8   52 1  
    15    9   10 ar 
    16    9   49 1  
    17   11   10 ar 
    18   12   11 ar 
    19   14   13 1  
    20   15   14 1  
    21   16   15 1  
    22   15   26 1  
    23   17   16 1  
    24   16   25 1  
    25   18   17 1  
    26   17   24 1  
    27   18   19 1  
    28   22   18 1  
    29   19   20 2  
    30   19   21 am 
    31   21   39 1  
    32   22   23 1  
    33   26   27 2  
    34   26   28 am 
    35   28   29 1  
    36   29   30 1  
    37   29   35 1  
    38   30   31 ar 
    39   30   32 ar 
    40   31   37 ar 
    41   31   38 1  
    42   32   33 ar 
    43   33   34 ar 
    44   34   37 ar 
    45   35   36 1  
    46   35   38 1  
    47   39   40 1  
    48   39   45 1  
    49   40   41 ar 
    50   40   42 ar 
    51   41   47 ar 
    52   41   48 1  
    53   42   43 ar 
    54   43   44 ar 
    55   44   47 ar 
    56   45   46 1  
    57   45   48 1  
    58    2   53 1  
    59    3   54 1  
    60    4   55 1  
    61   10   56 1  
    62   11   57 1  
    63   12   58 1  
    64   13   59 1  
    65   13   60 1  
    66   15   61 1  
    67   16   62 1  
    68   17   63 1  
    69   18   64 1  
    70   21   65 1  
    71   23   66 1  
    72   23   67 1  
    73   24   68 1  
    74   25   69 1  
    75   28   70 1  
    76   29   71 1  
    77   32   72 1  
    78   33   73 1  
    79   34   74 1  
    80   35   75 1  
    81   36   76 1  
    82   37   77 1  
    83   38   78 1  
    84   38   79 1  
    85   39   80 1  
    86   42   81 1  
    87   43   82 1  
    88   44   83 1  
    89   45   84 1  
    90   46   85 1  
    91   47   86 1  
    92   48   87 1  
    93   48   88 1  
@<TRIPOS>SUBSTRUCTURE
     1 BE5         1

