### 
### Created by X-TOOL on Mon Sep 10 21:12:51 2018
### 

@<TRIPOS>MOLECULE
1w5y_ligand
   88    93     1     0     0
SMALL
GAST_HUCK


@<TRIPOS>ATOM
      1 C01        16.7470   22.4150    8.8490 C.ar      1 BE6         0.0146
      2 C02        18.1370   22.5070    8.4070 C.ar      1 BE6        -0.0264
      3 C03        19.0930   21.4520    8.6270 C.ar      1 BE6         0.1216
      4 C04        18.6990   20.2310    9.3160 C.ar      1 BE6        -0.0370
      5 C05        17.3120   20.0960    9.7750 C.ar      1 BE6        -0.0366
      6 C06        16.3600   21.1650    9.5440 C.ar      1 BE6         0.1309
      7 C07        10.0890   24.1140    2.2380 C.ar      1 BE6         0.0146
      8 C08         8.9640   23.2690    2.6390 C.ar      1 BE6         0.1309
      9 C09         7.5900   23.8330    2.6510 C.ar      1 BE6        -0.0366
     10 C10         7.3770   25.2480    2.2560 C.ar      1 BE6        -0.0370
     11 C11         8.5440   26.0650    1.8590 C.ar      1 BE6         0.1216
     12 C12         9.8530   25.4940    1.8580 C.ar      1 BE6        -0.0264
     13 C13        11.5260   23.6260    2.2100 C.3       1 BE6         0.0851
     14 O14        12.0850   23.2880    3.5080 O.3       1 BE6        -0.3418
     15 C15        12.1100   24.3590    4.5860 C.3       1 BE6         0.1778
     16 C16        13.1530   24.0940    5.6590 C.3       1 BE6         0.1289
     17 C17        14.4610   23.7650    5.0460 C.3       1 BE6         0.1289
     18 C18        15.3490   23.0370    6.1270 C.3       1 BE6         0.1778
     19 C19        15.4050   21.5370    5.9420 C.2       1 BE6         0.2101
     20 O20        14.3900   20.8530    6.1490 O.2       1 BE6        -0.3940
     21 N21        16.5810   20.9340    5.5800 N.am      1 BE6        -0.2688
     22 O22        14.8490   23.3370    7.4870 O.3       1 BE6        -0.3418
     23 C23        15.8270   23.6130    8.5330 C.3       1 BE6         0.0851
     24 O24        15.0610   25.0140    4.6130 O.3       1 BE6        -0.3840
     25 O25        13.3700   25.2610    6.5330 O.3       1 BE6        -0.3840
     26 C26        10.8810   24.4500    5.4300 C.2       1 BE6         0.2101
     27 O27        10.4930   23.4220    6.0300 O.2       1 BE6        -0.3940
     28 N28        10.2390   25.6640    5.5050 N.am      1 BE6        -0.2688
     29 C29         9.0380   25.9040    6.2810 C.3       1 BE6         0.1007
     30 C30         9.3830   26.6970    7.5010 C.ar      1 BE6        -0.0133
     31 C31         8.3090   27.6230    7.8140 C.ar      1 BE6        -0.0361
     32 C32        10.5370   26.5730    8.3840 C.ar      1 BE6        -0.0646
     33 C33        10.5970   27.4050    9.6050 C.ar      1 BE6        -0.0754
     34 C34         9.5050   28.3250    9.8980 C.ar      1 BE6        -0.0755
     35 C35         7.9280   26.8150    5.6690 C.3       1 BE6         0.0951
     36 O36         8.5800   27.8700    4.9350 O.3       1 BE6        -0.3857
     37 C37         8.3510   28.4480    9.0140 C.ar      1 BE6        -0.0667
     38 C38         7.1650   27.3230    6.9250 C.3       1 BE6         0.0085
     39 C39        16.7060   19.5050    5.4160 C.3       1 BE6         0.1007
     40 C40        16.5860   19.0370    3.9580 C.ar      1 BE6        -0.0133
     41 C41        17.5240   17.9720    3.7160 C.ar      1 BE6        -0.0361
     42 C42        15.7810   19.5570    2.8640 C.ar      1 BE6        -0.0646
     43 C43        15.9450   18.9790    1.5090 C.ar      1 BE6        -0.0754
     44 C44        16.9030   17.9050    1.3040 C.ar      1 BE6        -0.0755
     45 C45        18.1020   18.9560    5.7940 C.3       1 BE6         0.0951
     46 O46        19.0760   19.9400    5.3730 O.3       1 BE6        -0.3857
     47 C47        17.7050   17.3800    2.3910 C.ar      1 BE6        -0.0667
     48 C48        18.1830   17.6340    5.0200 C.3       1 BE6         0.0085
     49 F49         8.4740   27.3950    1.4730 F         1 BE6        -0.1887
     50 F50        20.2910   21.5760    8.2200 F         1 BE6        -0.1887
     51 F51        14.9050   21.0540   10.0000 F         1 BE6        -0.1924
     52 F52         9.1550   22.1270    2.9620 F         1 BE6        -0.1924
     53 H1         18.4615   23.4047    7.8932 H         1 BE6         0.0532
     54 H2         19.4169   19.4369    9.4865 H         1 BE6         0.0536
     55 H3         16.9980   19.1944   10.2884 H         1 BE6         0.0576
     56 H4          6.7490   23.2159    2.9460 H         1 BE6         0.0576
     57 H5          6.3811   25.6760    2.2585 H         1 BE6         0.0536
     58 H6         10.6953   26.1101    1.5646 H         1 BE6         0.0532
     59 H7         12.1470   24.4185    1.7669 H         1 BE6         0.0718
     60 H8         11.5693   22.7284    1.5756 H         1 BE6         0.0718
     61 H9         12.2999   25.3234    4.0921 H         1 BE6         0.0870
     62 H10        12.8121   23.2457    6.2707 H         1 BE6         0.0674
     63 H11        14.3210   23.1016    4.1798 H         1 BE6         0.0674
     64 H12        16.3732   23.4279    6.0368 H         1 BE6         0.0870
     65 H13        17.3854   21.5070    5.4230 H         1 BE6         0.1881
     66 H14        16.4537   24.4571    8.2093 H         1 BE6         0.0718
     67 H15        15.2866   23.8882    9.4507 H         1 BE6         0.0718
     68 H16        15.1589   25.5927    5.3600 H         1 BE6         0.2102
     69 H17        14.0089   25.0407    7.2007 H         1 BE6         0.2102
     70 H18        10.6253   26.4302    4.9914 H         1 BE6         0.1881
     71 H19         8.6077   24.9267    6.5448 H         1 BE6         0.0732
     72 H20        11.3382   25.8818    8.1490 H         1 BE6         0.0538
     73 H21        11.4452   27.3314   10.2760 H         1 BE6         0.0541
     74 H22         9.5515   28.9326   10.7945 H         1 BE6         0.0541
     75 H23         7.2559   26.2547    5.0024 H         1 BE6         0.0659
     76 H24         7.9237   28.4399    4.5516 H         1 BE6         0.2103
     77 H25         7.5453   29.1357    9.2442 H         1 BE6         0.0537
     78 H26         6.5708   28.2224    6.7060 H         1 BE6         0.0439
     79 H27         6.5115   26.5459    7.3481 H         1 BE6         0.0439
     80 H28        15.9305   19.0274    6.0328 H         1 BE6         0.0732
     81 H29        15.0703   20.3569    3.0373 H         1 BE6         0.0538
     82 H30        15.3565   19.3534    0.6792 H         1 BE6         0.0541
     83 H31        17.0207   17.4855    0.3114 H         1 BE6         0.0541
     84 H32        18.1952   18.7773    6.8754 H         1 BE6         0.0659
     85 H33        19.9485   19.6337    5.5908 H         1 BE6         0.2103
     86 H34        18.4142   16.5766    2.2276 H         1 BE6         0.0537
     87 H35        19.2284   17.3273    4.8680 H         1 BE6         0.0439
     88 H36        17.6386   16.8343    5.5436 H         1 BE6         0.0439
@<TRIPOS>BOND
     1    1    2 ar 
     2    1    6 ar 
     3   23    1 1  
     4    2    3 ar 
     5    3    4 ar 
     6    3   50 1  
     7    5    4 ar 
     8    6    5 ar 
     9    6   51 1  
    10    7    8 ar 
    11    7   12 ar 
    12   13    7 1  
    13    8    9 ar 
    14    8   52 1  
    15    9   10 ar 
    16   11   10 ar 
    17   12   11 ar 
    18   11   49 1  
    19   14   13 1  
    20   15   14 1  
    21   16   15 1  
    22   15   26 1  
    23   17   16 1  
    24   16   25 1  
    25   18   17 1  
    26   17   24 1  
    27   18   19 1  
    28   22   18 1  
    29   19   20 2  
    30   19   21 am 
    31   21   39 1  
    32   22   23 1  
    33   26   27 2  
    34   26   28 am 
    35   28   29 1  
    36   29   30 1  
    37   29   35 1  
    38   30   31 ar 
    39   30   32 ar 
    40   31   37 ar 
    41   31   38 1  
    42   32   33 ar 
    43   33   34 ar 
    44   34   37 ar 
    45   35   36 1  
    46   35   38 1  
    47   39   40 1  
    48   39   45 1  
    49   40   41 ar 
    50   40   42 ar 
    51   41   47 ar 
    52   41   48 1  
    53   42   43 ar 
    54   43   44 ar 
    55   44   47 ar 
    56   45   46 1  
    57   45   48 1  
    58    2   53 1  
    59    4   54 1  
    60    5   55 1  
    61    9   56 1  
    62   10   57 1  
    63   12   58 1  
    64   13   59 1  
    65   13   60 1  
    66   15   61 1  
    67   16   62 1  
    68   17   63 1  
    69   18   64 1  
    70   21   65 1  
    71   23   66 1  
    72   23   67 1  
    73   24   68 1  
    74   25   69 1  
    75   28   70 1  
    76   29   71 1  
    77   32   72 1  
    78   33   73 1  
    79   34   74 1  
    80   35   75 1  
    81   36   76 1  
    82   37   77 1  
    83   38   78 1  
    84   38   79 1  
    85   39   80 1  
    86   42   81 1  
    87   43   82 1  
    88   44   83 1  
    89   45   84 1  
    90   46   85 1  
    91   47   86 1  
    92   48   87 1  
    93   48   88 1  
@<TRIPOS>SUBSTRUCTURE
     1 BE6         1

