### 
### Created by X-TOOL on Mon Sep 10 21:12:54 2018
### 

@<TRIPOS>MOLECULE
1w6h_ligand
   91    92     1     0     0
SMALL
GAST_HUCK


@<TRIPOS>ATOM
      1 C22        14.2640    6.8750   19.9020 C.ar      1 TIT        -0.0146
      2 C23        13.7890    8.2290   19.9480 C.ar      1 TIT        -0.0553
      3 C24        14.0280    9.1180   18.8510 C.ar      1 TIT        -0.0589
      4 C25        14.7430    8.6620   17.6970 C.ar      1 TIT         0.0056
      5 C26        15.2170    7.3120   17.6370 C.ar      1 TIT        -0.0589
      6 C27        14.9730    6.4280   18.7380 C.ar      1 TIT        -0.0553
      7 C21        14.1040    5.9980   21.0050 C.3       1 TIT         0.0830
      8 C20        12.5740    5.4380   22.8140 C.3       1 TIT         0.0758
      9 O07        12.8720    6.1410   21.6480 O.3       1 TIT        -0.3645
     10 BR         15.0000    9.6050   16.5400 Br        1 TIT        -0.0561
     11 C08        12.2500    6.3350   23.8870 C.3       1 TIT         0.0935
     12 C07        11.4420    5.6770   24.8960 C.3       1 TIT         0.0968
     13 C06        10.9070    6.5970   25.8690 C.3       1 TIT         0.0656
     14 C05         9.7050    7.2010   25.4400 C.2       1 TIT         0.1808
     15 O03         9.7560    8.4300   24.8620 O.2       1 TIT        -0.3968
     16 O04        12.2070    4.7630   25.5740 O.3       1 TIT        -0.3871
     17 N01         3.7740   10.0710   28.1230 N.am      1 TIT        -0.2990
     18 N04        13.3970    6.8510   24.4110 N.am      1 TIT        -0.2771
     19 N02         6.0460    9.0780   25.7220 N.am      1 TIT        -0.2637
     20 C02         5.5330   10.0410   26.5260 C.3       1 TIT         0.1309
     21 C29         5.4980   11.2590   25.8510 C.3       1 TIT        -0.0101
     22 C30         6.4320   12.1360   26.4170 C.3       1 TIT        -0.0425
     23 C31         7.2770   12.6290   25.4230 C.3       1 TIT        -0.0625
     24 C32         5.7760   13.2050   27.0540 C.3       1 TIT        -0.0625
     25 C01         4.2390    9.6740   26.9320 C.2       1 TIT         0.1992
     26 O01         3.4520    8.9040   26.1080 O.2       1 TIT        -0.3947
     27 N03         8.5090    6.5850   25.6400 N.am      1 TIT        -0.2658
     28 C04         7.3150    7.1340   25.2760 C.3       1 TIT         0.1281
     29 C28         6.3240    6.1300   25.1810 C.3       1 TIT        -0.0244
     30 C03         6.8750    8.1260   26.1710 C.2       1 TIT         0.2036
     31 O02         7.2510    8.1040   27.4860 O.2       1 TIT        -0.3944
     32 N05        15.7150    9.1100   23.7350 N.am      1 TIT        -0.2626
     33 C10        14.9870    8.6100   24.7720 C.3       1 TIT         0.1329
     34 C17        14.7300    9.6360   25.7780 C.3       1 TIT        -0.0063
     35 C18        14.1080    9.1060   26.9140 C.3       1 TIT        -0.0584
     36 C19        15.9100   10.2630   26.2060 C.3       1 TIT        -0.0584
     37 C09        13.7750    8.1310   24.2140 C.2       1 TIT         0.2023
     38 O05        13.0020    8.9670   23.4720 O.2       1 TIT        -0.3945
     39 C12        17.4720    8.8050   22.0370 C.ar      1 TIT         0.1226
     40 C16        17.5300   10.1250   20.0540 C.ar      1 TIT         0.0170
     41 C15        18.5230    9.2800   19.4950 C.ar      1 TIT        -0.0295
     42 C13        18.4650    7.9480   21.4990 C.ar      1 TIT        -0.0138
     43 C14        18.9740    8.2150   20.2090 C.ar      1 TIT        -0.0365
     44 C11        16.8870    8.5860   23.2980 C.2       1 TIT         0.2262
     45 O06        17.4320    7.4850   23.9110 O.2       1 TIT        -0.3787
     46 N06        17.0340    9.8710   21.3010 N.ar      1 TIT        -0.2760
     47 H1         13.2463    8.5805   20.8181 H         1 TIT         0.0565
     48 H2         13.6666   10.1391   18.8943 H         1 TIT         0.0626
     49 H3         15.7566    6.9613   16.7647 H         1 TIT         0.0626
     50 H4         15.3298    5.4055   18.6905 H         1 TIT         0.0565
     51 H5         14.9036    6.2017   21.7324 H         1 TIT         0.0730
     52 H6         14.1917    4.9627   20.6440 H         1 TIT         0.0730
     53 H7         13.4462    4.8329   23.1021 H         1 TIT         0.0586
     54 H8         11.7151    4.7770   22.6260 H         1 TIT         0.0586
     55 H9         11.6594    7.1660   23.4740 H         1 TIT         0.0606
     56 H10        10.6090    5.1618   24.3954 H         1 TIT         0.0642
     57 H11        11.6510    7.3856   26.0549 H         1 TIT         0.0529
     58 H12        10.7124    6.0490   26.8027 H         1 TIT         0.0529
     59 H13        12.9093    5.2140   26.0278 H         1 TIT         0.2101
     60 H14         2.8531    9.8101   28.4125 H         1 TIT         0.1815
     61 H15         4.3476   10.6285   28.7232 H         1 TIT         0.1815
     62 H16        13.9819    6.2573   24.9636 H         1 TIT         0.1856
     63 H17         5.7955    9.0780   24.7539 H         1 TIT         0.1883
     64 H18         6.1720   10.1443   27.4153 H         1 TIT         0.0800
     65 H19         4.4910   11.6941   25.9324 H         1 TIT         0.0315
     66 H20         5.7430   11.0974   24.7909 H         1 TIT         0.0315
     67 H21         7.0309   11.5897   27.1605 H         1 TIT         0.0298
     68 H22         8.0086   13.3170   25.8718 H         1 TIT         0.0232
     69 H23         6.6824   13.1665   24.6696 H         1 TIT         0.0232
     70 H24         7.8065   11.7924   24.9437 H         1 TIT         0.0232
     71 H25         5.1106   12.8125   27.8371 H         1 TIT         0.0232
     72 H26         5.1829   13.7638   26.3152 H         1 TIT         0.0232
     73 H27         6.5214   13.8745   27.5079 H         1 TIT         0.0232
     74 H28         8.5051    5.6849   26.0756 H         1 TIT         0.1882
     75 H29         7.4433    7.5973   24.2866 H         1 TIT         0.0797
     76 H30         5.3671    6.5860   24.8870 H         1 TIT         0.0277
     77 H31         6.2096    5.6343   26.1563 H         1 TIT         0.0277
     78 H32         6.6242    5.3887   24.4258 H         1 TIT         0.0277
     79 H33        15.3613    9.9182   23.2640 H         1 TIT         0.1880
     80 H34        15.5334    7.7797   25.2433 H         1 TIT         0.0802
     81 H35        14.0686   10.3920   25.3296 H         1 TIT         0.0343
     82 H36        13.9328    9.9095   27.6446 H         1 TIT         0.0234
     83 H37        14.7556    8.3379   27.3620 H         1 TIT         0.0234
     84 H38        13.1466    8.6541   26.6285 H         1 TIT         0.0234
     85 H39        16.4311   10.6947   25.3388 H         1 TIT         0.0234
     86 H40        16.5616    9.5237   26.6946 H         1 TIT         0.0234
     87 H41        15.6624   11.0622   26.9200 H         1 TIT         0.0234
     88 H42        17.1637   10.9750   19.4897 H         1 TIT         0.0842
     89 H43        18.9189    9.4821   18.5063 H         1 TIT         0.0744
     90 H44        18.8281    7.1006   22.0692 H         1 TIT         0.0764
     91 H45        19.7307    7.5651   19.7847 H         1 TIT         0.0749
@<TRIPOS>BOND
     1    1    2 ar 
     2    1    6 ar 
     3    7    1 1  
     4    2    3 ar 
     5    3    4 ar 
     6    5    4 ar 
     7    4   10 1  
     8    6    5 ar 
     9    9    7 1  
    10    8    9 1  
    11   11    8 1  
    12   11   12 1  
    13   18   11 1  
    14   12   13 1  
    15   12   16 1  
    16   13   14 1  
    17   14   15 2  
    18   14   27 am 
    19   25   17 am 
    20   37   18 am 
    21   19   20 1  
    22   30   19 am 
    23   20   21 1  
    24   20   25 1  
    25   21   22 1  
    26   22   23 1  
    27   22   24 1  
    28   25   26 2  
    29   27   28 1  
    30   28   29 1  
    31   28   30 1  
    32   30   31 2  
    33   32   33 1  
    34   44   32 am 
    35   33   34 1  
    36   33   37 1  
    37   34   35 1  
    38   34   36 1  
    39   37   38 2  
    40   39   42 ar 
    41   39   44 1  
    42   46   39 ar 
    43   40   41 ar 
    44   40   46 ar 
    45   41   43 ar 
    46   42   43 ar 
    47   44   45 2  
    48    2   47 1  
    49    3   48 1  
    50    5   49 1  
    51    6   50 1  
    52    7   51 1  
    53    7   52 1  
    54    8   53 1  
    55    8   54 1  
    56   11   55 1  
    57   12   56 1  
    58   13   57 1  
    59   13   58 1  
    60   16   59 1  
    61   17   60 1  
    62   17   61 1  
    63   18   62 1  
    64   19   63 1  
    65   20   64 1  
    66   21   65 1  
    67   21   66 1  
    68   22   67 1  
    69   23   68 1  
    70   23   69 1  
    71   23   70 1  
    72   24   71 1  
    73   24   72 1  
    74   24   73 1  
    75   27   74 1  
    76   28   75 1  
    77   29   76 1  
    78   29   77 1  
    79   29   78 1  
    80   32   79 1  
    81   33   80 1  
    82   34   81 1  
    83   35   82 1  
    84   35   83 1  
    85   35   84 1  
    86   36   85 1  
    87   36   86 1  
    88   36   87 1  
    89   40   88 1  
    90   41   89 1  
    91   42   90 1  
    92   43   91 1  
@<TRIPOS>SUBSTRUCTURE
     1 TIT         1

