### 
### Created by X-TOOL on Mon Sep 10 21:12:51 2018
### 

@<TRIPOS>MOLECULE
1w6r_ligand
   41    44     1     0     0
SMALL
GAST_HUCK


@<TRIPOS>ATOM
      1 C1          2.6500   67.6610   63.4320 C.2       1 GNT        -0.1053
      2 C2          2.7990   68.1720   62.1980 C.2       1 GNT        -0.0079
      3 C3          4.1930   68.4080   61.5850 C.3       1 GNT         0.1219
      4 C4          5.3690   68.4590   62.7340 C.3       1 GNT         0.0179
      5 C41         5.1530   67.2270   63.6640 C.3       1 GNT         0.0724
      6 C42         3.8460   67.3510   64.4300 C.3       1 GNT        -0.0162
      7 O5          5.1900   65.9910   62.9580 O.3       1 GNT        -0.2584
      8 C6          4.5890   63.7660   63.9110 C.ar      1 GNT         0.2604
      9 C7          3.8270   63.1050   64.9120 C.ar      1 GNT         0.0677
     10 C8          3.0760   63.8470   65.8210 C.ar      1 GNT         0.0251
     11 C9          2.2290   65.9650   66.8100 C.2       1 GNT         0.0639
     12 N10         1.9940   67.2200   67.0670 N.2       1 GNT        -0.3610
     13 C11         2.4530   68.4310   66.3370 C.3       1 GNT         0.0043
     14 C12         3.8090   68.4240   65.5990 C.3       1 GNT        -0.0786
     15 C13         4.5190   65.1850   63.8760 C.ar      1 GNT         0.2405
     16 C14         3.7520   65.9240   64.7850 C.ar      1 GNT         0.0248
     17 C15         3.0290   65.2880   65.7800 C.ar      1 GNT         0.0683
     18 C16         5.8240   61.7850   63.3060 C.3       1 GNT         0.0882
     19 O17         5.4870   63.1330   63.0060 O.3       1 GNT        -0.2428
     20 O18         4.3180   67.2490   60.6900 O.3       1 GNT        -0.3625
     21 C19         1.2120   67.4310   68.2710 C.3       1 GNT         0.0069
     22 H1          1.6382   67.4443   63.7715 H         1 GNT         0.0365
     23 H2          1.9133   68.4254   61.6173 H         1 GNT         0.1365
     24 H3          4.2176   69.3471   61.0127 H         1 GNT         0.0976
     25 H4          5.2888   69.3894   63.3153 H         1 GNT         0.0358
     26 H5          6.3610   68.4061   62.2616 H         1 GNT         0.0358
     27 H6          5.9752   67.2172   64.3947 H         1 GNT         0.0526
     28 H7          3.8301   62.0225   64.9683 H         1 GNT         0.0915
     29 H8          2.5090   63.3248   66.5832 H         1 GNT         0.1065
     30 H9          1.7331   65.2799   67.4961 H         1 GNT         0.1260
     31 H10         2.4973   69.2470   67.0733 H         1 GNT         0.0456
     32 H11         1.6837   68.6577   65.5841 H         1 GNT         0.0456
     33 H12         3.9849   69.4217   65.1706 H         1 GNT         0.0097
     34 H13         4.6048   68.1895   66.3213 H         1 GNT         0.0097
     35 H14         6.5189   61.4025   62.5439 H         1 GNT         0.0645
     36 H15         4.9112   61.1712   63.3110 H         1 GNT         0.0645
     37 H16         6.3028   61.7382   64.2952 H         1 GNT         0.0645
     38 H17         4.2605   66.4493   61.1994 H         1 GNT         0.2169
     39 H18         0.9406   66.4583   68.7071 H         1 GNT         0.0435
     40 H19         0.2974   67.9888   68.0212 H         1 GNT         0.0435
     41 H20         1.8051   68.0058   68.9975 H         1 GNT         0.0435
@<TRIPOS>BOND
     1    1    2 2  
     2    6    1 1  
     3    3    2 1  
     4    4    3 1  
     5    3   20 1  
     6    5    4 1  
     7    5    6 1  
     8    7    5 1  
     9    6   14 1  
    10    6   16 1  
    11   15    7 1  
    12    9    8 ar 
    13    8   15 ar 
    14    8   19 1  
    15   10    9 ar 
    16   17   10 ar 
    17   11   12 2  
    18   11   17 1  
    19   12   13 1  
    20   12   21 1  
    21   13   14 1  
    22   15   16 ar 
    23   16   17 ar 
    24   19   18 1  
    25    1   22 1  
    26    2   23 1  
    27    3   24 1  
    28    4   25 1  
    29    4   26 1  
    30    5   27 1  
    31    9   28 1  
    32   10   29 1  
    33   11   30 1  
    34   13   31 1  
    35   13   32 1  
    36   14   33 1  
    37   14   34 1  
    38   18   35 1  
    39   18   36 1  
    40   18   37 1  
    41   20   38 1  
    42   21   39 1  
    43   21   40 1  
    44   21   41 1  
@<TRIPOS>SUBSTRUCTURE
     1 GNT         1

