### 
### Created by X-TOOL on Mon Sep 10 21:12:53 2018
### 

@<TRIPOS>MOLECULE
1w6y_ligand
   38    41     1     0     0
SMALL
GAST_HUCK


@<TRIPOS>ATOM
      1 C1         12.8050   59.4570    4.4450 C.ar      1 EQU         0.0847
      2 C2         12.5540   58.5530    5.5280 C.ar      1 EQU        -0.0349
      3 C3         13.0970   58.8770    6.8430 C.ar      1 EQU        -0.0392
      4 C4         13.9220   60.1700    7.0510 C.ar      1 EQU        -0.0264
      5 C5         14.1290   61.0260    5.9010 C.ar      1 EQU        -0.0607
      6 C6         13.5860   60.6800    4.6340 C.ar      1 EQU        -0.0316
      7 C10        12.8370   57.9480    7.9530 C.ar      1 EQU        -0.0716
      8 C11        13.3700   58.2610    9.2750 C.ar      1 EQU        -0.0697
      9 C12        14.1650   59.4920    9.5120 C.ar      1 EQU        -0.0421
     10 C13        14.4510   60.4610    8.4010 C.ar      1 EQU        -0.0366
     11 C16        14.7090   59.7710   10.9210 C.3       1 EQU        -0.0001
     12 C17        14.9410   61.3340   11.2420 C.3       1 EQU         0.0440
     13 C18        15.8250   61.9980   10.1200 C.3       1 EQU        -0.0320
     14 C19        15.2860   61.7510    8.6470 C.3       1 EQU        -0.0221
     15 C24        13.8450   59.3470   12.1570 C.3       1 EQU        -0.0275
     16 C25        14.8060   59.8240   13.3080 C.3       1 EQU         0.0246
     17 C26        15.4820   61.1000   12.6590 C.2       1 EQU         0.1347
     18 C27        13.6500   62.2340   11.4270 C.3       1 EQU        -0.0528
     19 O1         12.3050   59.1430    3.2840 O.3       1 EQU        -0.3342
     20 O26        16.3100   61.7950   13.1970 O.2       1 EQU        -0.3320
     21 H1         11.9745   57.6499    5.3741 H         1 EQU         0.0478
     22 H2         14.7035   61.9391    6.0077 H         1 EQU         0.0603
     23 H3         13.7542   61.3370    3.7884 H         1 EQU         0.0566
     24 H4         12.2588   57.0453    7.7918 H         1 EQU         0.0507
     25 H5         13.1819   57.5822   10.0989 H         1 EQU         0.0551
     26 H6         15.6727   59.2436   10.9777 H         1 EQU         0.0425
     27 H7         16.8421   61.5851   10.1905 H         1 EQU         0.0278
     28 H8         15.8563   63.0827   10.3001 H         1 EQU         0.0278
     29 H9         14.6543   62.6103    8.3777 H         1 EQU         0.0415
     30 H10        16.1582   61.7130    7.9778 H         1 EQU         0.0415
     31 H11        13.6738   58.2608   12.1869 H         1 EQU         0.0309
     32 H12        12.8785   59.8715   12.1835 H         1 EQU         0.0309
     33 H13        15.5537   59.0543   13.5500 H         1 EQU         0.0488
     34 H14        14.2435   60.0871   14.2159 H         1 EQU         0.0488
     35 H15        13.0076   61.7979   12.2062 H         1 EQU         0.0221
     36 H16        13.0957   62.2796   10.4780 H         1 EQU         0.0221
     37 H17        13.9504   63.2493   11.7253 H         1 EQU         0.0221
     38 H18        11.7098   59.8274    3.0012 H         1 EQU         0.2479
@<TRIPOS>BOND
     1    1    2 ar 
     2    1    6 ar 
     3    1   19 1  
     4    2    3 ar 
     5    3    4 ar 
     6    3    7 ar 
     7    4    5 ar 
     8    4   10 ar 
     9    5    6 ar 
    10    7    8 ar 
    11    8    9 ar 
    12    9   10 ar 
    13    9   11 1  
    14   10   14 1  
    15   11   12 1  
    16   11   15 1  
    17   12   13 1  
    18   12   17 1  
    19   12   18 1  
    20   13   14 1  
    21   15   16 1  
    22   16   17 1  
    23   17   20 2  
    24    2   21 1  
    25    5   22 1  
    26    6   23 1  
    27    7   24 1  
    28    8   25 1  
    29   11   26 1  
    30   13   27 1  
    31   13   28 1  
    32   14   29 1  
    33   14   30 1  
    34   15   31 1  
    35   15   32 1  
    36   16   33 1  
    37   16   34 1  
    38   18   35 1  
    39   18   36 1  
    40   18   37 1  
    41   19   38 1  
@<TRIPOS>SUBSTRUCTURE
     1 EQU         1

