### 
### Created by X-TOOL on Sun Sep  9 21:50:14 2018
### 

@<TRIPOS>MOLECULE
1w70_ligand
    7     6     1     0     0
SMALL
GAST_HUCK


@<TRIPOS>ATOM
      1 C1          8.1320   38.8100    3.3060 C.2       1 NON         0.1504
      2 C2          8.4100   39.5350    4.6390 C.3       1 NON         0.4381
      3 O           7.0310   38.1840    3.1760 O.co2     1 NON        -0.5402
      4 F1          9.4550   40.3200    4.6980 F         1 NON        -0.1694
      5 F2          7.3740   40.3210    4.9090 F         1 NON        -0.1694
      6 F3          8.5430   38.7650    5.8080 F         1 NON        -0.1694
      7 OXT         9.0010   38.8700    2.4660 O.co2     1 NON        -0.5402
@<TRIPOS>BOND
     1    1    2 1  
     2    1    3 ar 
     3    1    7 ar 
     4    2    4 1  
     5    2    5 1  
     6    2    6 1  
@<TRIPOS>SUBSTRUCTURE
     1 NON         1

