### 
### Created by X-TOOL on Mon Sep 10 21:12:52 2018
### 

@<TRIPOS>MOLECULE
1w76_ligand
   41    44     1     0     0
SMALL
GAST_HUCK


@<TRIPOS>ATOM
      1 C1         93.0260   49.4920   19.8460 C.2       1 GNT        -0.1053
      2 C2         91.8600   48.8880   19.4540 C.2       1 GNT        -0.0079
      3 C3         91.0690   47.9260   20.3810 C.3       1 GNT         0.1219
      4 C4         91.9650   47.3780   21.5940 C.3       1 GNT         0.0179
      5 C41        92.6950   48.5840   22.2030 C.3       1 GNT         0.0724
      6 C42        93.7260   49.1760   21.2180 C.3       1 GNT        -0.0162
      7 O5         91.8280   49.6980   22.6240 O.3       1 GNT        -0.2584
      8 C6         92.6530   51.8990   23.4410 C.ar      1 GNT         0.2604
      9 C7         93.7320   52.8190   23.3950 C.ar      1 GNT         0.0677
     10 C8         94.8990   52.5340   22.6330 C.ar      1 GNT         0.0251
     11 C9         96.3030   51.1460   21.1140 C.2       1 GNT         0.0639
     12 N10        96.7090   50.1650   20.3220 N.2       1 GNT        -0.3610
     13 C11        95.9740   48.9230   19.9320 C.3       1 GNT         0.0043
     14 C12        94.9580   48.2770   20.9210 C.3       1 GNT        -0.0786
     15 C13        92.7920   50.7300   22.6990 C.ar      1 GNT         0.2405
     16 C14        93.9510   50.4520   21.9280 C.ar      1 GNT         0.0248
     17 C15        95.0370   51.3480   21.8860 C.ar      1 GNT         0.0683
     18 C16        91.6240   52.6470   25.5210 C.3       1 GNT         0.0882
     19 O17        91.4580   52.0820   24.2070 O.3       1 GNT        -0.2428
     20 O18        89.9980   48.7290   20.8770 O.3       1 GNT        -0.3625
     21 C19        98.0600   50.2920   19.7870 C.3       1 GNT         0.0069
     22 H1         93.4865   50.2204   19.1802 H         1 GNT         0.0365
     23 H2         91.4742   49.0902   18.4559 H         1 GNT         0.1365
     24 H3         90.6816   47.0724   19.8055 H         1 GNT         0.0976
     25 H4         92.6954   46.6447   21.2213 H         1 GNT         0.0358
     26 H5         91.3237   46.9042   22.3517 H         1 GNT         0.0358
     27 H6         93.2291   48.2185   23.0925 H         1 GNT         0.0526
     28 H7         93.6664   53.7497   23.9468 H         1 GNT         0.0915
     29 H8         95.7094   53.2539   22.6271 H         1 GNT         0.1065
     30 H9         97.0236   51.9551   21.2236 H         1 GNT         0.1260
     31 H10        96.7346   48.1589   19.7138 H         1 GNT         0.0456
     32 H11        95.4170   49.1587   19.0132 H         1 GNT         0.0456
     33 H12        94.6023   47.3312   20.4864 H         1 GNT         0.0097
     34 H13        95.4768   48.0727   21.8692 H         1 GNT         0.0097
     35 H14        90.6417   52.7380   26.0077 H         1 GNT         0.0645
     36 H15        92.0850   53.6422   25.4367 H         1 GNT         0.0645
     37 H16        92.2719   51.9925   26.1224 H         1 GNT         0.0645
     38 H17        90.3535   49.4671   21.3579 H         1 GNT         0.2169
     39 H18        98.5048   51.2360   20.1347 H         1 GNT         0.0435
     40 H19        98.0210   50.2881   18.6877 H         1 GNT         0.0435
     41 H20        98.6731   49.4477   20.1351 H         1 GNT         0.0435
@<TRIPOS>BOND
     1    1    2 2  
     2    6    1 1  
     3    3    2 1  
     4    4    3 1  
     5    3   20 1  
     6    5    4 1  
     7    5    6 1  
     8    7    5 1  
     9    6   14 1  
    10    6   16 1  
    11   15    7 1  
    12    9    8 ar 
    13    8   15 ar 
    14    8   19 1  
    15   10    9 ar 
    16   17   10 ar 
    17   11   12 2  
    18   11   17 1  
    19   12   13 1  
    20   12   21 1  
    21   13   14 1  
    22   15   16 ar 
    23   16   17 ar 
    24   19   18 1  
    25    1   22 1  
    26    2   23 1  
    27    3   24 1  
    28    4   25 1  
    29    4   26 1  
    30    5   27 1  
    31    9   28 1  
    32   10   29 1  
    33   11   30 1  
    34   13   31 1  
    35   13   32 1  
    36   14   33 1  
    37   14   34 1  
    38   18   35 1  
    39   18   36 1  
    40   18   37 1  
    41   20   38 1  
    42   21   39 1  
    43   21   40 1  
    44   21   41 1  
@<TRIPOS>SUBSTRUCTURE
     1 GNT         1

