### 
### Created by X-TOOL on Mon Sep 10 21:12:55 2018
### 

@<TRIPOS>MOLECULE
1w7g_ligand
   69    70     1     0     0
SMALL
GAST_HUCK


@<TRIPOS>ATOM
      1 C1         17.1550  -17.2920   21.9850 C.ar      1 MIU         0.1372
      2 S11        15.4240  -17.5330   21.9250 S.o2      1 MIU         0.0769
      3 N12        14.5230  -16.0470   21.9810 N.am      1 MIU        -0.2250
      4 C13        14.7640  -15.0710   20.8850 C.3       1 MIU         0.1266
      5 O24        14.9270  -18.4420   23.1210 O.2       1 MIU        -0.1496
      6 O25        15.0100  -18.2220   20.5560 O.2       1 MIU        -0.1496
      7 C2         17.9760  -17.7160   20.9080 C.ar      1 MIU        -0.0071
      8 C3         19.3800  -17.5020   20.9810 C.ar      1 MIU        -0.0302
      9 C4         19.9490  -16.8740   22.1240 C.ar      1 MIU        -0.0314
     10 C5         19.1160  -16.4470   23.2130 C.ar      1 MIU         0.0501
     11 C6         19.7500  -15.7570   24.4540 C.3       1 MIU         0.3771
     12 F61        20.6470  -16.5810   25.0600 F         1 MIU        -0.2199
     13 F1         20.3990  -14.6160   24.0760 F         1 MIU        -0.2199
     14 F6         18.7940  -15.4200   25.3640 F         1 MIU        -0.2199
     15 C10        17.7110  -16.6690   23.1270 C.ar      1 MIU        -0.0046
     16 C14        15.9460  -14.0500   21.2480 C.2       1 MIU         0.2006
     17 O15        16.1420  -13.8000   22.4500 O.2       1 MIU        -0.3948
     18 N26        16.7510  -13.4650   20.2720 N.am      1 MIU        -0.2615
     19 C27        18.0170  -12.7810   20.5730 C.3       1 MIU         0.0741
     20 C28        19.1040  -13.4510   19.8090 C.3       1 MIU        -0.0109
     21 N29        18.7460  -13.4100   18.3240 N.4       1 MIU         0.2382
     22 C30        17.4500  -14.1370   18.0010 C.3       1 MIU        -0.0109
     23 C31        16.3150  -13.4990   18.8050 C.3       1 MIU         0.0741
     24 C32        19.5480  -14.4100   17.6120 C.3       1 MIU        -0.0268
     25 C16        13.3380  -14.4880   20.6240 C.3       1 MIU        -0.0128
     26 C17        12.6070  -13.7300   21.7600 C.3       1 MIU        -0.0160
     27 C18        12.3000  -12.3150   21.2670 C.3       1 MIU         0.0627
     28 N19        11.5910  -11.4370   22.2280 N.pl3     1 MIU        -0.2723
     29 C20        12.1740  -10.8070   23.2440 C.cat     1 MIU         0.2882
     30 N21        13.1420   -9.9390   23.1310 N.pl3     1 MIU        -0.2849
     31 N22        11.7590  -11.0560   24.4550 N.pl3     1 MIU        -0.2849
     32 C33        20.4690  -14.0070   16.4240 C.3       1 MIU         0.0275
     33 C8         20.4480  -12.5070   16.0730 C.3       1 MIU        -0.0305
     34 N9         19.0800  -12.1030   15.6960 N.4       1 MIU         0.2187
     35 H1         13.8725  -15.8573   22.7165 H         1 MIU         0.1706
     36 H2         15.0844  -15.6080   19.9801 H         1 MIU         0.0753
     37 H3         17.5385  -18.1969   20.0406 H         1 MIU         0.0876
     38 H4         20.0183  -17.8181   20.1639 H         1 MIU         0.0699
     39 H5         21.0204  -16.7166   22.1731 H         1 MIU         0.0853
     40 H6         17.0651  -16.3590   23.9405 H         1 MIU         0.0873
     41 H7         18.2267  -12.8443   21.6510 H         1 MIU         0.0575
     42 H8         17.9491  -11.7246   20.2741 H         1 MIU         0.0575
     43 H9         19.2005  -14.4958   20.1391 H         1 MIU         0.0834
     44 H10        20.0550  -12.9242   19.9765 H         1 MIU         0.0834
     45 H11        18.8009  -12.4714   17.9605 H         1 MIU         0.2035
     46 H12        17.5439  -15.1989   18.2722 H         1 MIU         0.0834
     47 H13        17.2355  -14.0507   16.9256 H         1 MIU         0.0834
     48 H14        16.1288  -12.4764   18.4450 H         1 MIU         0.0575
     49 H15        15.3981  -14.0975   18.6997 H         1 MIU         0.0575
     50 H16        18.8405  -15.1551   17.2192 H         1 MIU         0.0816
     51 H17        20.1975  -14.8818   18.3640 H         1 MIU         0.0816
     52 H18        12.6943  -15.3323   20.3363 H         1 MIU         0.0309
     53 H19        13.4270  -13.7899   19.7786 H         1 MIU         0.0309
     54 H20        13.2505  -13.6829   22.6509 H         1 MIU         0.0301
     55 H21        11.6701  -14.2486   22.0114 H         1 MIU         0.0301
     56 H22        11.6771  -12.3997   20.3643 H         1 MIU         0.0689
     57 H23        13.2545  -11.8326   21.0099 H         1 MIU         0.0689
     58 H24        10.5774  -11.3058   22.1002 H         1 MIU         0.2642
     59 H25        13.5377   -9.4964   23.9727 H         1 MIU         0.2615
     60 H26        13.5103   -9.6966   22.2001 H         1 MIU         0.2615
     61 H27        10.9974  -11.7320   24.6096 H         1 MIU         0.2615
     62 H28        12.1928  -10.5767   25.2568 H         1 MIU         0.2615
     63 H29        20.1489  -14.5712   15.5356 H         1 MIU         0.0369
     64 H30        21.5018  -14.2840   16.6819 H         1 MIU         0.0369
     65 H31        21.1298  -12.3191   15.2305 H         1 MIU         0.0815
     66 H32        20.7741  -11.9227   16.9460 H         1 MIU         0.0815
     67 H33        19.0706  -11.1214   15.4672 H         1 MIU         0.1994
     68 H34        18.4544  -12.2741   16.4676 H         1 MIU         0.1994
     69 H35        18.7804  -12.6374   14.8956 H         1 MIU         0.1994
@<TRIPOS>BOND
     1    1    2 1  
     2    1    7 ar 
     3    1   15 ar 
     4    2    3 am 
     5    2    5 2  
     6    2    6 2  
     7    3    4 1  
     8    4   16 1  
     9    4   25 1  
    10    7    8 ar 
    11    8    9 ar 
    12    9   10 ar 
    13   10   11 1  
    14   10   15 ar 
    15   11   12 1  
    16   11   13 1  
    17   11   14 1  
    18   16   17 2  
    19   16   18 am 
    20   18   19 1  
    21   18   23 1  
    22   19   20 1  
    23   20   21 1  
    24   21   22 1  
    25   21   24 1  
    26   22   23 1  
    27   24   32 1  
    28   25   26 1  
    29   26   27 1  
    30   27   28 1  
    31   28   29 ar 
    32   29   30 ar 
    33   29   31 ar 
    34   32   33 1  
    35   33   34 1  
    36    3   35 1  
    37    4   36 1  
    38    7   37 1  
    39    8   38 1  
    40    9   39 1  
    41   15   40 1  
    42   19   41 1  
    43   19   42 1  
    44   20   43 1  
    45   20   44 1  
    46   21   45 1  
    47   22   46 1  
    48   22   47 1  
    49   23   48 1  
    50   23   49 1  
    51   24   50 1  
    52   24   51 1  
    53   25   52 1  
    54   25   53 1  
    55   26   54 1  
    56   26   55 1  
    57   27   56 1  
    58   27   57 1  
    59   28   58 1  
    60   30   59 1  
    61   30   60 1  
    62   31   61 1  
    63   31   62 1  
    64   32   63 1  
    65   32   64 1  
    66   33   65 1  
    67   33   66 1  
    68   34   67 1  
    69   34   68 1  
    70   34   69 1  
@<TRIPOS>SUBSTRUCTURE
     1 MIU         1

