### 
### Created by X-TOOL on Mon Sep 10 21:12:52 2018
### 

@<TRIPOS>MOLECULE
1w7h_ligand
   27    28     1     0     0
SMALL
GAST_HUCK


@<TRIPOS>ATOM
      1 N1         20.8130   34.3980   31.5280 N.pl3     1 3IP        -0.3248
      2 C2         21.6460   33.9140   30.5300 C.ar      1 3IP         0.1404
      3 N3         22.7270   34.6770   30.1470 N.ar      1 3IP        -0.2969
      4 C4         23.6300   34.2940   29.1670 C.ar      1 3IP        -0.0168
      5 C5         23.4700   33.0260   28.4780 C.ar      1 3IP        -0.0579
      6 C6         22.3300   32.1760   28.8490 C.ar      1 3IP        -0.0250
      7 C7         21.3830   32.6130   29.9010 C.ar      1 3IP         0.1400
      8 O8         20.2520   31.8830   30.3440 O.3       1 3IP        -0.3030
      9 C9         19.5410   30.9110   29.4900 C.3       1 3IP         0.1033
     10 C10        18.1040   30.7710   30.0040 C.ar      1 3IP        -0.0130
     11 C11        17.0350   31.6570   29.5080 C.ar      1 3IP        -0.0578
     12 C12        15.6590   31.5480   30.0020 C.ar      1 3IP        -0.0685
     13 C13        15.2930   30.5430   31.0160 C.ar      1 3IP        -0.0687
     14 C14        16.3560   29.6350   31.5320 C.ar      1 3IP        -0.0685
     15 C15        17.7490   29.7570   31.0210 C.ar      1 3IP        -0.0578
     16 H1         19.9983   33.8458   31.8316 H         1 3IP         0.1735
     17 H2         21.0092   35.3096   31.9654 H         1 3IP         0.1735
     18 H3         24.4595   34.9444   28.9140 H         1 3IP         0.0677
     19 H4         24.1712   32.7152   27.7120 H         1 3IP         0.0566
     20 H5         22.1814   31.2249   28.3506 H         1 3IP         0.0611
     21 H6         20.0481   29.9360   29.5363 H         1 3IP         0.0776
     22 H7         19.5297   31.2695   28.4501 H         1 3IP         0.0776
     23 H8         17.2718   32.4060   28.7611 H         1 3IP         0.0557
     24 H9         14.8988   32.2171   29.6154 H         1 3IP         0.0599
     25 H10        14.2741   30.4661   31.3781 H         1 3IP         0.0559
     26 H11        16.1153   28.8867   32.2784 H         1 3IP         0.0599
     27 H12        18.5160   29.0916   31.4005 H         1 3IP         0.0557
@<TRIPOS>BOND
     1    1    2 1  
     2    2    3 ar 
     3    2    7 ar 
     4    3    4 ar 
     5    4    5 ar 
     6    5    6 ar 
     7    6    7 ar 
     8    7    8 1  
     9    8    9 1  
    10    9   10 1  
    11   10   11 ar 
    12   10   15 ar 
    13   11   12 ar 
    14   12   13 ar 
    15   13   14 ar 
    16   14   15 ar 
    17    1   16 1  
    18    1   17 1  
    19    4   18 1  
    20    5   19 1  
    21    6   20 1  
    22    9   21 1  
    23    9   22 1  
    24   11   23 1  
    25   12   24 1  
    26   13   25 1  
    27   14   26 1  
    28   15   27 1  
@<TRIPOS>SUBSTRUCTURE
     1 3IP         1

