### 
### Created by X-TOOL on Mon Sep 10 21:12:52 2018
### 

@<TRIPOS>MOLECULE
1w82_ligand
   47    49     1     0     0
SMALL
GAST_HUCK


@<TRIPOS>ATOM
      1 CL16        4.8900    9.7710   30.9510 Cl        1 L10        -0.0850
      2 C15         5.5580   10.8320   32.1200 C.ar      1 L10         0.0238
      3 C14         6.9220   11.0560   32.1070 C.ar      1 L10        -0.0617
      4 C13         7.4560   11.9210   33.0210 C.ar      1 L10        -0.0407
      5 C17         4.7180   11.4490   33.0300 C.ar      1 L10        -0.0617
      6 C18         5.2550   12.3190   33.9510 C.ar      1 L10        -0.0407
      7 C12         6.6280   12.5620   33.9570 C.ar      1 L10         0.0677
      8 N11         7.2840   13.4230   34.8490 N.am      1 L10        -0.2131
      9 C9          6.8910   13.8890   36.0640 C.2       1 L10         0.3236
     10 O10         5.9870   13.3850   36.7030 O.2       1 L10        -0.3785
     11 N8          7.6240   14.9260   36.5540 N.am      1 L10        -0.1792
     12 C7          7.6090   15.4520   37.8440 C.2       1 L10         0.2198
     13 C6          7.3800   14.7730   38.9880 C.2       1 L10        -0.0187
     14 N19         7.8820   16.7540   38.1660 N.pl3     1 L10        -0.1031
     15 N20         7.7840   16.8430   39.5490 N.2       1 L10        -0.1653
     16 C5          7.4760   15.6710   40.0350 C.2       1 L10        -0.0024
     17 C2          7.2910   15.3140   41.4890 C.3       1 L10        -0.0451
     18 C4          7.0550   16.5960   42.2890 C.3       1 L10        -0.0851
     19 C3          8.5890   14.6270   41.9220 C.3       1 L10        -0.0851
     20 C1          6.1220   14.3520   41.7140 C.3       1 L10        -0.0851
     21 C21         8.1960   17.8280   37.2860 C.ar      1 L10         0.1285
     22 C26         7.4820   18.0470   36.1060 C.ar      1 L10        -0.0207
     23 C25         7.7980   19.0840   35.2530 C.ar      1 L10        -0.0631
     24 C24         8.8340   19.9350   35.5660 C.ar      1 L10        -0.0662
     25 C23         9.5520   19.7470   36.7290 C.ar      1 L10        -0.0631
     26 C22         9.2360   18.7020   37.5710 C.ar      1 L10        -0.0207
     27 H1          7.5567   10.5548   31.3851 H         1 L10         0.0583
     28 H2          8.5229   12.1130   33.0234 H         1 L10         0.0502
     29 H3          3.6525   11.2500   33.0176 H         1 L10         0.0583
     30 H4          4.6123   12.8141   34.6700 H         1 L10         0.0502
     31 H5          8.1805   13.7441   34.5436 H         1 L10         0.2266
     32 H6          8.2501   15.3640   35.9089 H         1 L10         0.2345
     33 H7          7.1594   13.7098   39.0713 H         1 L10         0.0222
     34 H8          6.9189   16.3454   43.3514 H         1 L10         0.0133
     35 H9          6.1535   17.1020   41.9133 H         1 L10         0.0133
     36 H10         7.9229   17.2626   42.1778 H         1 L10         0.0133
     37 H11         8.7331   13.7101   41.3317 H         1 L10         0.0133
     38 H12         8.5293   14.3699   42.9899 H         1 L10         0.0133
     39 H13         9.4372   15.3073   41.7555 H         1 L10         0.0133
     40 H14         5.1839   14.8366   41.4057 H         1 L10         0.0133
     41 H15         6.0648   14.0874   42.7802 H         1 L10         0.0133
     42 H16         6.2771   13.4407   41.1178 H         1 L10         0.0133
     43 H17         6.6601   17.3865   35.8544 H         1 L10         0.0608
     44 H18         7.2326   19.2284   34.3395 H         1 L10         0.0607
     45 H19         9.0853   20.7520   34.8993 H         1 L10         0.0578
     46 H20        10.3636   20.4201   36.9805 H         1 L10         0.0607
     47 H21         9.8135   18.5595   38.4772 H         1 L10         0.0608
@<TRIPOS>BOND
     1    1    2 1  
     2    2    3 ar 
     3    2    5 ar 
     4    3    4 ar 
     5    4    7 ar 
     6    5    6 ar 
     7    6    7 ar 
     8    7    8 1  
     9    8    9 am 
    10    9   10 2  
    11    9   11 am 
    12   11   12 1  
    13   12   13 2  
    14   12   14 1  
    15   13   16 1  
    16   14   15 1  
    17   14   21 1  
    18   15   16 2  
    19   16   17 1  
    20   17   18 1  
    21   17   19 1  
    22   17   20 1  
    23   21   22 ar 
    24   21   26 ar 
    25   22   23 ar 
    26   23   24 ar 
    27   24   25 ar 
    28   25   26 ar 
    29    3   27 1  
    30    4   28 1  
    31    5   29 1  
    32    6   30 1  
    33    8   31 1  
    34   11   32 1  
    35   13   33 1  
    36   18   34 1  
    37   18   35 1  
    38   18   36 1  
    39   19   37 1  
    40   19   38 1  
    41   19   39 1  
    42   20   40 1  
    43   20   41 1  
    44   20   42 1  
    45   22   43 1  
    46   23   44 1  
    47   24   45 1  
    48   25   46 1  
    49   26   47 1  
@<TRIPOS>SUBSTRUCTURE
     1 L10         1

