### 
### Created by X-TOOL on Mon Sep 10 21:12:53 2018
### 

@<TRIPOS>MOLECULE
1w83_ligand
   52    55     1     0     0
SMALL
GAST_HUCK


@<TRIPOS>ATOM
      1 CL15        5.9360    9.7580   30.3880 Cl        1 L11        -0.0908
      2 C14         6.0270   10.9370   31.6870 C.ar      1 L11         0.0275
      3 C13         7.2650   11.3930   32.1210 C.ar      1 L11        -0.0678
      4 C12         7.3600   12.3370   33.1290 C.ar      1 L11        -0.0472
      5 C16         4.8800   11.4350   32.3020 C.ar      1 L11        -0.0123
      6 C17         3.5100   11.0280   31.8380 C.3       1 L11         0.1035
      7 O18         3.1410    9.7200   32.2250 O.3       1 L11        -0.2977
      8 C19         2.0190    9.3160   31.5430 C.ar      1 L11         0.1221
      9 C24         1.3990    8.1140   31.9190 C.ar      1 L11         0.0398
     10 N23         0.3170    7.6850   31.2590 N.ar      1 L11        -0.3071
     11 C22        -0.2180    8.3740   30.2380 C.ar      1 L11        -0.0002
     12 C21         0.3440    9.5770   29.8220 C.ar      1 L11        -0.0426
     13 C20         1.4810   10.0600   30.4730 C.ar      1 L11        -0.0129
     14 C25         4.9760   12.3860   33.3080 C.ar      1 L11        -0.0371
     15 C11         6.2190   12.8370   33.7480 C.ar      1 L11         0.0597
     16 N10         6.3540   13.8060   34.7580 N.am      1 L11        -0.2345
     17 C8          5.8060   13.8050   36.0020 C.2       1 L11         0.2286
     18 O9          4.9370   13.0360   36.3450 O.2       1 L11        -0.3728
     19 C6          6.2420   14.7940   36.9970 C.ar      1 L11         0.0427
     20 C7          7.0430   15.8630   36.6020 C.ar      1 L11        -0.0213
     21 C2          7.4410   16.7810   37.5590 C.ar      1 L11         0.1263
     22 F1          8.2070   17.8050   37.1740 F         1 L11        -0.1859
     23 C5          5.8630   14.6520   38.3310 C.ar      1 L11        -0.0282
     24 C4          6.2740   15.5740   39.2960 C.ar      1 L11         0.0438
     25 C3          7.0590   16.6600   38.8930 C.ar      1 L11        -0.0069
     26 N26         5.8450   15.4370   40.6340 N.pl3     1 L11        -0.3045
     27 C31         5.8530   14.0640   41.1580 C.3       1 L11         0.0501
     28 C30         5.1010   14.0950   42.4990 C.3       1 L11         0.0673
     29 O29         5.6780   15.0350   43.4180 O.3       1 L11        -0.3759
     30 C28         5.7780   16.3550   42.8800 C.3       1 L11         0.0673
     31 C27         6.5230   16.3540   41.5590 C.3       1 L11         0.0501
     32 H1          8.1683   11.0047   31.6646 H         1 L11         0.0568
     33 H2          8.3362   12.6912   33.4400 H         1 L11         0.0450
     34 H3          3.4850   11.0845   30.7398 H         1 L11         0.0781
     35 H4          2.7779   11.7333   32.2583 H         1 L11         0.0781
     36 H5          1.7966    7.5336   32.7437 H         1 L11         0.0751
     37 H6         -1.0965    7.9891   29.7329 H         1 L11         0.0729
     38 H7         -0.0958   10.1329   29.0019 H         1 L11         0.0681
     39 H8          1.9418   10.9904   30.1613 H         1 L11         0.0663
     40 H9          4.0729   12.7830   33.7572 H         1 L11         0.0439
     41 H10         6.9251   14.5953   34.5327 H         1 L11         0.2255
     42 H11         7.3481   15.9738   35.5677 H         1 L11         0.0544
     43 H12         5.2405   13.8141   38.6234 H         1 L11         0.0532
     44 H13         7.3689   17.4050   39.6169 H         1 L11         0.0535
     45 H14         6.8876   13.7236   41.3120 H         1 L11         0.0536
     46 H15         5.3452   13.3875   40.4548 H         1 L11         0.0536
     47 H16         5.1356   13.0918   42.9488 H         1 L11         0.0579
     48 H17         4.0543   14.3774   42.3127 H         1 L11         0.0579
     49 H18         6.3166   16.9941   43.5951 H         1 L11         0.0579
     50 H19         4.7658   16.7552   42.7207 H         1 L11         0.0579
     51 H20         6.5271   17.3695   41.1362 H         1 L11         0.0536
     52 H21         7.5585   16.0191   41.7189 H         1 L11         0.0536
@<TRIPOS>BOND
     1    1    2 1  
     2    2    3 ar 
     3    2    5 ar 
     4    3    4 ar 
     5    4   15 ar 
     6    5    6 1  
     7    5   14 ar 
     8    6    7 1  
     9    7    8 1  
    10    8    9 ar 
    11    8   13 ar 
    12    9   10 ar 
    13   10   11 ar 
    14   11   12 ar 
    15   12   13 ar 
    16   14   15 ar 
    17   15   16 1  
    18   16   17 am 
    19   17   18 2  
    20   17   19 1  
    21   19   20 ar 
    22   19   23 ar 
    23   20   21 ar 
    24   21   22 1  
    25   21   25 ar 
    26   23   24 ar 
    27   24   25 ar 
    28   24   26 1  
    29   26   27 1  
    30   26   31 1  
    31   27   28 1  
    32   28   29 1  
    33   29   30 1  
    34   30   31 1  
    35    3   32 1  
    36    4   33 1  
    37    6   34 1  
    38    6   35 1  
    39    9   36 1  
    40   11   37 1  
    41   12   38 1  
    42   13   39 1  
    43   14   40 1  
    44   16   41 1  
    45   20   42 1  
    46   23   43 1  
    47   25   44 1  
    48   27   45 1  
    49   27   46 1  
    50   28   47 1  
    51   28   48 1  
    52   30   49 1  
    53   30   50 1  
    54   31   51 1  
    55   31   52 1  
@<TRIPOS>SUBSTRUCTURE
     1 L11         1

