### 
### Created by X-TOOL on Mon Sep 10 21:12:52 2018
### 

@<TRIPOS>MOLECULE
1w84_ligand
   31    33     1     0     0
SMALL
GAST_HUCK


@<TRIPOS>ATOM
      1 C4          4.2610   12.2020   29.5010 C.2       1 L12        -0.0441
      2 C5          2.9350   12.9270   29.3820 C.3       1 L12        -0.0248
      3 C6          1.9570   12.5880   30.5180 C.3       1 L12        -0.0075
      4 C7          1.5400   11.1380   30.4810 C.ar      1 L12        -0.0219
      5 C8          2.0360   10.2480   31.4190 C.ar      1 L12        -0.0323
      6 C10         1.6560    8.9190   31.3680 C.ar      1 L12         0.0031
      7 N12         0.8230    8.4650   30.4420 N.ar      1 L12        -0.3066
      8 C13         0.3280    9.2890   29.5300 C.ar      1 L12         0.0031
      9 C15         0.6680   10.6400   29.5150 C.ar      1 L12        -0.0323
     10 C11         4.6930   11.2060   28.7080 C.2       1 L12         0.0166
     11 C20         5.5180   13.3360   31.5440 C.ar      1 L12        -0.0747
     12 C21         5.3430   12.4500   30.4720 C.ar      1 L12        -0.0214
     13 C22         6.3790   11.5270   30.1670 C.ar      1 L12         0.0603
     14 C24         7.5610   11.4980   30.9170 C.ar      1 L12        -0.0443
     15 C26         7.7030   12.3920   31.9710 C.ar      1 L12        -0.0768
     16 N11         5.9510   10.8040   29.0960 N.pl3     1 L12        -0.2890
     17 C28         6.6830   13.3030   32.2750 C.ar      1 L12        -0.0792
     18 H1          2.4692   12.6495   28.4249 H         1 L12         0.0374
     19 H2          3.1260   14.0102   29.3964 H         1 L12         0.0374
     20 H3          1.0616   13.2191   30.4179 H         1 L12         0.0466
     21 H4          2.4450   12.7941   31.4820 H         1 L12         0.0466
     22 H5          2.7180   10.5909   32.1886 H         1 L12         0.0651
     23 H6          2.0503    8.2295   32.1057 H         1 L12         0.0803
     24 H7         -0.3548    8.9045   28.7810 H         1 L12         0.0803
     25 H8          0.2575   11.2984   28.7580 H         1 L12         0.0651
     26 H9          4.1297   10.7794   27.8794 H         1 L12         0.0795
     27 H10         4.7378   14.0450   31.7963 H         1 L12         0.0540
     28 H11         8.3492   10.7925   30.6801 H         1 L12         0.0541
     29 H12         8.6109   12.3846   32.5633 H         1 L12         0.0530
     30 H13         6.4943   10.0580   28.6385 H         1 L12         0.2216
     31 H14         6.8139   13.9936   33.1002 H         1 L12         0.0510
@<TRIPOS>BOND
     1    1    2 1  
     2    1   10 2  
     3    1   12 1  
     4    2    3 1  
     5    3    4 1  
     6    4    5 ar 
     7    4    9 ar 
     8    5    6 ar 
     9    6    7 ar 
    10    7    8 ar 
    11    8    9 ar 
    12   10   16 1  
    13   12   11 ar 
    14   11   17 ar 
    15   12   13 ar 
    16   13   14 ar 
    17   13   16 1  
    18   14   15 ar 
    19   15   17 ar 
    20    2   18 1  
    21    2   19 1  
    22    3   20 1  
    23    3   21 1  
    24    5   22 1  
    25    6   23 1  
    26    8   24 1  
    27    9   25 1  
    28   10   26 1  
    29   11   27 1  
    30   14   28 1  
    31   15   29 1  
    32   16   30 1  
    33   17   31 1  
@<TRIPOS>SUBSTRUCTURE
     1 L12         1

