### 
### Created by X-TOOL on Mon Sep 10 21:12:51 2018
### 

@<TRIPOS>MOLECULE
1w8l_ligand
   25    25     1     0     0
SMALL
GAST_HUCK


@<TRIPOS>ATOM
      1 C2          1.4880   58.6170   54.3490 C.3       1 1P3        -0.0606
      2 C3          2.4200   57.4550   54.5740 C.3       1 1P3        -0.0234
      3 C20         3.8500   57.9340   54.4520 C.3       1 1P3         0.0364
      4 C4          2.1810   56.8540   55.9540 C.3       1 1P3        -0.0468
      5 C5          3.1800   55.7490   56.2560 C.3       1 1P3        -0.0322
      6 N1          4.7750   56.8440   54.7510 N.am      1 1P3        -0.2732
      7 C6          4.6170   56.2190   56.0630 C.3       1 1P3         0.0339
      8 C7          5.7530   57.0940   52.4950 C.3       1 1P3         0.0258
      9 C10         5.7070   56.4400   53.8730 C.2       1 1P3         0.1754
     10 O11         6.4980   55.5320   54.1010 O.2       1 1P3        -0.3972
     11 H1          1.6681   59.0436   53.3512 H         1 1P3         0.0233
     12 H2          1.6691   59.3859   55.1145 H         1 1P3         0.0233
     13 H3          0.4464   58.2701   54.4169 H         1 1P3         0.0233
     14 H4          2.2304   56.6859   53.8108 H         1 1P3         0.0318
     15 H5          4.0187   58.7582   55.1607 H         1 1P3         0.0525
     16 H6          4.0276   58.2900   53.4265 H         1 1P3         0.0525
     17 H7          1.1637   56.4374   55.9921 H         1 1P3         0.0269
     18 H8          2.2819   57.6450   56.7117 H         1 1P3         0.0269
     19 H9          2.9887   54.9015   55.5814 H         1 1P3         0.0285
     20 H10         3.0482   55.4247   57.2988 H         1 1P3         0.0285
     21 H11         5.2942   55.3554   56.1373 H         1 1P3         0.0522
     22 H12         4.8678   56.9501   56.8456 H         1 1P3         0.0522
     23 H13         6.5687   56.6500   51.9055 H         1 1P3         0.0467
     24 H14         5.9277   58.1742   52.6074 H         1 1P3         0.0467
     25 H15         4.7958   56.9291   51.9787 H         1 1P3         0.0467
@<TRIPOS>BOND
     1    1    2 1  
     2    2    3 1  
     3    2    4 1  
     4    3    6 1  
     5    4    5 1  
     6    5    7 1  
     7    6    7 1  
     8    6    9 am 
     9    9    8 1  
    10    9   10 2  
    11    1   11 1  
    12    1   12 1  
    13    1   13 1  
    14    2   14 1  
    15    3   15 1  
    16    3   16 1  
    17    4   17 1  
    18    4   18 1  
    19    5   19 1  
    20    5   20 1  
    21    7   21 1  
    22    7   22 1  
    23    8   23 1  
    24    8   24 1  
    25    8   25 1  
@<TRIPOS>SUBSTRUCTURE
     1 1P3         1

