### 
### Created by X-TOOL on Mon Sep 10 21:12:51 2018
### 

@<TRIPOS>MOLECULE
1w8m_ligand
   28    28     1     0     0
SMALL
GAST_HUCK


@<TRIPOS>ATOM
      1 C3          5.9000   58.8910   51.3070 C.3       1 E1P         0.0348
      2 C2          6.6180   58.1530   50.1670 C.3       1 E1P        -0.0323
      3 C1          5.8080   56.9570   49.6620 C.3       1 E1P        -0.0494
      4 C5          5.4160   55.9920   50.7780 C.3       1 E1P        -0.0323
      5 C4          4.7370   56.7190   51.9240 C.3       1 E1P         0.0348
      6 N1          5.5710   57.8750   52.3330 N.am      1 E1P        -0.2604
      7 C6          6.0070   57.9710   53.5800 C.2       1 E1P         0.2998
      8 O2          6.7210   58.8830   54.0070 O.2       1 E1P        -0.3564
      9 C7          5.6060   56.8390   54.5000 C.2       1 E1P         0.3446
     10 O3          6.3060   55.8410   54.5470 O.2       1 E1P        -0.3290
     11 O4          4.4840   57.0390   55.2400 O.3       1 E1P        -0.2670
     12 C8          4.1710   56.0540   56.2450 C.3       1 E1P         0.0743
     13 C9          2.7710   56.2860   56.8140 C.3       1 E1P        -0.0371
     14 H1          4.9797   59.3628   50.9324 H         1 E1P         0.0524
     15 H2          6.5592   59.6610   51.7342 H         1 E1P         0.0524
     16 H3          7.5913   57.7942   50.5331 H         1 E1P         0.0285
     17 H4          6.7753   58.8533   49.3335 H         1 E1P         0.0285
     18 H5          6.4118   56.4113   48.9220 H         1 E1P         0.0267
     19 H6          4.8911   57.3310   49.1831 H         1 E1P         0.0267
     20 H7          6.3215   55.4947   51.1559 H         1 E1P         0.0285
     21 H8          4.7252   55.2378   50.3731 H         1 E1P         0.0285
     22 H9          4.6174   56.0327   52.7753 H         1 E1P         0.0524
     23 H10         3.7486   57.0757   51.5988 H         1 E1P         0.0524
     24 H11         4.9073   56.1228   57.0593 H         1 E1P         0.0610
     25 H12         4.2156   55.0517   55.7941 H         1 E1P         0.0610
     26 H13         2.5546   55.5241   57.5773 H         1 E1P         0.0255
     27 H14         2.0297   56.2148   56.0044 H         1 E1P         0.0255
     28 H15         2.7214   57.2859   57.2697 H         1 E1P         0.0255
@<TRIPOS>BOND
     1    1    2 1  
     2    1    6 1  
     3    2    3 1  
     4    3    4 1  
     5    4    5 1  
     6    5    6 1  
     7    6    7 am 
     8    7    8 2  
     9    7    9 1  
    10    9   10 2  
    11    9   11 1  
    12   11   12 1  
    13   12   13 1  
    14    1   14 1  
    15    1   15 1  
    16    2   16 1  
    17    2   17 1  
    18    3   18 1  
    19    3   19 1  
    20    4   20 1  
    21    4   21 1  
    22    5   22 1  
    23    5   23 1  
    24   12   24 1  
    25   12   25 1  
    26   13   26 1  
    27   13   27 1  
    28   13   28 1  
@<TRIPOS>SUBSTRUCTURE
     1 E1P         1

