### 
### Created by X-TOOL on Mon Sep 10 21:12:52 2018
### 

@<TRIPOS>MOLECULE
1w96_ligand
   81    83     1     0     0
SMALL
GAST_HUCK


@<TRIPOS>ATOM
      1 C1         12.4590   27.2090  115.5470 C.2       1 S1A         0.2441
      2 C2         13.5850   27.6850  114.6350 C.3       1 S1A         0.1137
      3 C3         14.7140   26.6270  114.6790 C.3       1 S1A         0.2182
      4 C4         15.8690   27.0470  113.7130 C.3       1 S1A         0.1405
      5 C5         16.9020   25.8850  113.4930 C.3       1 S1A         0.0916
      6 C6         16.1840   24.5490  113.2420 C.3       1 S1A         0.0130
      7 C7         15.1240   24.3230  114.3330 C.3       1 S1A         0.0760
      8 C8         14.3960   22.9840  114.1090 C.3       1 S1A        -0.0005
      9 C9         13.2960   22.8050  115.1880 C.2       1 S1A        -0.0909
     10 C10        13.5110   21.9970  116.2990 C.2       1 S1A        -0.0675
     11 C11        12.4390   21.9120  117.4080 C.3       1 S1A         0.1018
     12 C12        13.0680   22.2160  118.7790 C.3       1 S1A         0.0908
     13 C13        13.5800   23.6610  118.8340 C.3       1 S1A        -0.0225
     14 C14        12.4860   24.7040  118.6590 C.3       1 S1A        -0.0502
     15 C15        12.9670   26.0880  119.0190 C.3       1 S1A        -0.0485
     16 C16        11.8250   27.0920  118.9590 C.3       1 S1A        -0.0120
     17 C17        11.3310   27.4030  117.5440 C.3       1 S1A         0.1215
     18 C19        14.0950   29.0430  115.0940 C.3       1 S1A        -0.0388
     19 C20        16.0770   28.5490  111.9000 C.3       1 S1A         0.0372
     20 C21        15.5460   24.5410  111.8500 C.3       1 S1A        -0.0574
     21 C22        15.3650   21.8070  114.1170 C.3       1 S1A        -0.0533
     22 C23        10.8780   20.4620  116.3770 C.3       1 S1A         0.0392
     23 C24        14.3920   21.1940  120.4480 C.3       1 S1A         0.0371
     24 C25        10.3240   28.5630  117.6260 C.ar      1 S1A        -0.0098
     25 C26        10.7930   29.8720  117.8420 C.ar      1 S1A        -0.0575
     26 C27         9.9010   30.8970  118.1430 C.ar      1 S1A        -0.0685
     27 C28         8.5380   30.6230  118.2310 C.ar      1 S1A        -0.0687
     28 C29         8.0690   29.3230  118.0180 C.ar      1 S1A        -0.0685
     29 C30         8.9630   28.2940  117.7180 C.ar      1 S1A        -0.0575
     30 O1         11.5750   26.3450  115.3440 O.2       1 S1A        -0.3697
     31 O3         15.2160   26.5260  116.0160 O.3       1 S1A        -0.3605
     32 O4         15.3150   27.4450  112.4540 O.3       1 S1A        -0.3717
     33 O5         17.7640   25.7600  114.6300 O.3       1 S1A        -0.3887
     34 O7         14.1570   25.3740  114.2690 O.3       1 S1A        -0.3385
     35 O11        11.8630   20.6000  117.4350 O.3       1 S1A        -0.3684
     36 O12        14.1420   21.3000  119.0250 O.3       1 S1A        -0.3754
     37 O18        12.4480   27.7970  116.7310 O.3       1 S1A        -0.2599
     38 H1         13.2098   27.7750  113.6049 H         1 S1A         0.0606
     39 H2         16.3990   27.9033  114.1556 H         1 S1A         0.0678
     40 H3         17.5137   26.1258  112.6111 H         1 S1A         0.0624
     41 H4         16.9218   23.7347  113.2931 H         1 S1A         0.0351
     42 H5         15.6090   24.3194  115.3203 H         1 S1A         0.0623
     43 H6         13.9113   23.0169  113.1221 H         1 S1A         0.0446
     44 H7         12.3427   23.3190  115.0739 H         1 S1A         0.0454
     45 H8         14.4335   21.4251  116.3872 H         1 S1A         0.0476
     46 H9         11.6497   22.6496  117.2008 H         1 S1A         0.0747
     47 H10        12.3021   22.0844  119.5575 H         1 S1A         0.0642
     48 H11        14.3214   23.7976  118.0330 H         1 S1A         0.0293
     49 H12        14.0608   23.8223  119.8101 H         1 S1A         0.0293
     50 H13        11.6375   24.4421  119.3082 H         1 S1A         0.0266
     51 H14        12.1582   24.7032  117.6090 H         1 S1A         0.0266
     52 H15        13.7517   26.3923  118.3107 H         1 S1A         0.0268
     53 H16        13.3795   26.0722  120.0386 H         1 S1A         0.0268
     54 H17        12.1678   28.0311  119.4179 H         1 S1A         0.0316
     55 H18        10.9809   26.6881  119.5372 H         1 S1A         0.0316
     56 H19        10.8478   26.5154  117.1096 H         1 S1A         0.0814
     57 H20        13.2752   29.7753  115.0535 H         1 S1A         0.0259
     58 H21        14.9119   29.3702  114.4339 H         1 S1A         0.0259
     59 H22        14.4665   28.9654  116.1264 H         1 S1A         0.0259
     60 H23        15.6427   28.8459  110.9339 H         1 S1A         0.0524
     61 H24        17.1211   28.2361  111.7519 H         1 S1A         0.0524
     62 H25        16.0446   29.4017  112.5941 H         1 S1A         0.0524
     63 H26        16.3236   24.7043  111.0893 H         1 S1A         0.0234
     64 H27        14.7961   25.3431  111.7857 H         1 S1A         0.0234
     65 H28        15.0601   23.5698  111.6749 H         1 S1A         0.0234
     66 H29        14.8080   20.8725  113.9544 H         1 S1A         0.0253
     67 H30        15.8801   21.7627  115.0879 H         1 S1A         0.0253
     68 H31        16.1059   21.9366  113.3144 H         1 S1A         0.0253
     69 H32        10.4444   19.4516  116.4093 H         1 S1A         0.0526
     70 H33        11.3619   20.6223  115.4023 H         1 S1A         0.0526
     71 H34        10.0815   21.2074  116.5180 H         1 S1A         0.0526
     72 H35        15.2177   20.4887  120.6237 H         1 S1A         0.0524
     73 H36        13.4853   20.8302  120.9535 H         1 S1A         0.0524
     74 H37        14.6629   22.1825  120.8473 H         1 S1A         0.0524
     75 H38        11.8541   30.0830  117.7736 H         1 S1A         0.0558
     76 H39        10.2654   31.9045  118.3083 H         1 S1A         0.0599
     77 H40         7.8400   31.4187  118.4649 H         1 S1A         0.0559
     78 H41         7.0076   29.1137  118.0861 H         1 S1A         0.0599
     79 H42         8.5967   27.2865  117.5570 H         1 S1A         0.0558
     80 H43        15.5833   27.3616  116.2791 H         1 S1A         0.2130
     81 H44        18.2064   26.5867  114.7830 H         1 S1A         0.2099
@<TRIPOS>BOND
     1    1    2 1  
     2    1   30 2  
     3    1   37 1  
     4    2    3 1  
     5    2   18 1  
     6    3    4 1  
     7    3   31 1  
     8    3   34 1  
     9    4    5 1  
    10    4   32 1  
    11    5    6 1  
    12    5   33 1  
    13    6    7 1  
    14    6   20 1  
    15    7    8 1  
    16    7   34 1  
    17    8    9 1  
    18    8   21 1  
    19    9   10 2  
    20   10   11 1  
    21   11   12 1  
    22   11   35 1  
    23   12   13 1  
    24   12   36 1  
    25   13   14 1  
    26   14   15 1  
    27   15   16 1  
    28   16   17 1  
    29   17   24 1  
    30   17   37 1  
    31   32   19 1  
    32   35   22 1  
    33   36   23 1  
    34   24   25 ar 
    35   24   29 ar 
    36   25   26 ar 
    37   26   27 ar 
    38   27   28 ar 
    39   28   29 ar 
    40    2   38 1  
    41    4   39 1  
    42    5   40 1  
    43    6   41 1  
    44    7   42 1  
    45    8   43 1  
    46    9   44 1  
    47   10   45 1  
    48   11   46 1  
    49   12   47 1  
    50   13   48 1  
    51   13   49 1  
    52   14   50 1  
    53   14   51 1  
    54   15   52 1  
    55   15   53 1  
    56   16   54 1  
    57   16   55 1  
    58   17   56 1  
    59   18   57 1  
    60   18   58 1  
    61   18   59 1  
    62   19   60 1  
    63   19   61 1  
    64   19   62 1  
    65   20   63 1  
    66   20   64 1  
    67   20   65 1  
    68   21   66 1  
    69   21   67 1  
    70   21   68 1  
    71   22   69 1  
    72   22   70 1  
    73   22   71 1  
    74   23   72 1  
    75   23   73 1  
    76   23   74 1  
    77   25   75 1  
    78   26   76 1  
    79   27   77 1  
    80   28   78 1  
    81   29   79 1  
    82   31   80 1  
    83   33   81 1  
@<TRIPOS>SUBSTRUCTURE
     1 S1A         1

