### 
### Created by X-TOOL on Mon Sep 10 21:12:52 2018
### 

@<TRIPOS>MOLECULE
1waw_ligand
   90    93     1     0     0
SMALL
GAST_HUCK


@<TRIPOS>ATOM
      1 C1B        14.0440  -10.7180   23.0850 C.3       1 0AR         0.0254
      2 C0B        13.7000  -11.5630   21.8570 C.2       1 0AR         0.1740
      3 O0C        14.3330  -12.5890   21.6080 O.2       1 0AR        -0.3977
      4 NH2        12.7120  -11.1500   21.0510 N.am      1 0AR        -0.2244
      5 CZ         12.3250  -11.7960   19.9540 C.cat     1 0AR         0.3282
      6 NH1        12.8780  -12.9550   19.6010 N.pl3     1 0AR        -0.2542
      7 NE         11.3400  -11.2680   19.2330 N.pl3     1 0AR        -0.2417
      8 CD         10.8560  -11.8930   17.9940 C.3       1 0AR         0.0888
      9 CG          9.8100  -10.9720   17.3610 C.3       1 0AR        -0.0071
     10 CB          8.5650  -10.8950   18.2480 C.3       1 0AR        -0.0084
     11 CA          7.5480   -9.8630   17.7540 C.3       1 0AR         0.1313
     12 N           7.9460   -8.5170   18.1970 N.am      1 0AR        -0.2637
     13 CBO         7.2230   -7.4540   17.8510 C.2       1 UN1         0.2039
     14 OBM         6.2030   -7.5400   17.1700 O.2       1 UN1        -0.3944
     15 C           6.2010  -10.1980   18.4010 C.2       1 0AR         0.2064
     16 O           6.0820  -10.1100   19.6220 O.2       1 0AR        -0.3942
     17 NAL         5.1600  -10.5640   17.6540 N.am      1 DPR        -0.2498
     18 CAR         5.0250  -10.7430   16.1980 C.3       1 DPR         0.0369
     19 CAQ         3.5200  -10.9040   15.9800 C.3       1 DPR        -0.0281
     20 CAP         3.1930  -11.7490   17.2110 C.3       1 DPR        -0.0104
     21 CAM         3.8800  -10.9160   18.2960 C.3       1 DPR         0.1338
     22 CAN         2.9900   -9.7120   18.6280 C.2       1 DPR         0.2041
     23 OAO         1.8110   -9.9000   18.9260 O.2       1 DPR        -0.3944
     24 NAS         3.5390   -8.5000   18.6280 N.am      1 HSE        -0.2636
     25 CAT         2.7030   -7.3270   18.9330 C.3       1 HSE         0.1356
     26 CAU         3.3330   -6.0530   18.3720 C.2       1 HSE         0.2087
     27 OAV         3.3810   -5.7970   17.1700 O.2       1 HSE        -0.3941
     28 CAW         2.6120   -7.0030   20.4250 C.3       1 HSE         0.0356
     29 CAX         3.7060   -5.9520   20.6270 C.3       1 HSE         0.1492
     30 OAY         4.9380   -6.5460   21.0450 O.3       1 HSE        -0.3694
     31 NAZ         3.8770   -5.2930   19.3230 N.am      1 HIS        -0.2217
     32 CBA         4.5100   -4.0210   18.9420 C.3       1 HIS         0.1422
     33 CBD         4.6740   -3.1100   20.1620 C.3       1 HIS         0.0148
     34 CBE         4.7580   -1.6260   19.7880 C.2       1 HIS        -0.0027
     35 CBG         5.1780   -1.1070   18.6380 C.2       1 HIS         0.0291
     36 NBI         5.0700    0.2180   18.7160 N.pl3     1 HIS        -0.2752
     37 CBH         4.5830    0.5180   19.9160 C.2       1 HIS         0.0907
     38 NBF         4.3930   -0.6200   20.5780 N.2       1 HIS        -0.3252
     39 CBB         5.8680   -4.3920   18.3400 C.2       1 HIS         0.2057
     40 OBC         6.3780   -3.7150   17.4470 O.2       1 HIS        -0.3942
     41 NBS         6.4170   -5.4830   18.8690 N.am      1 UN1        -0.2636
     42 CBP         7.6640   -6.0810   18.3660 C.3       1 UN1         0.1311
     43 CBQ         8.7810   -6.1550   19.4120 C.3       1 UN1        -0.0109
     44 CBR         8.3710   -6.8420   20.7180 C.3       1 UN1        -0.0372
     45 CBN         9.5840   -7.1290   21.6080 C.3       1 UN1         0.0004
     46 CBJ        10.4430   -8.2780   21.0730 C.2       1 UN1         0.0348
     47 OBL        11.4890   -8.5920   21.6380 O.co2     1 UN1        -0.5690
     48 OBK        10.0920   -8.9110   20.0770 O.co2     1 UN1        -0.5690
     49 H1         13.3705   -9.8496   23.1329 H         1 0AR         0.0467
     50 H2         15.0852  -10.3708   23.0113 H         1 0AR         0.0467
     51 H3         13.9236  -11.3259   23.9938 H         1 0AR         0.0467
     52 H4         12.2359  -10.3034   21.2890 H         1 0AR         0.1856
     53 H5         12.5624  -13.4374   18.7474 H         1 0AR         0.3199
     54 H6         13.6213  -13.3690   20.1816 H         1 0AR         0.3199
     55 H7         10.9021  -10.3925   19.5534 H         1 0AR         0.3224
     56 H8         10.4014  -12.8680   18.2234 H         1 0AR         0.0797
     57 H9         11.6955  -12.0346   17.2975 H         1 0AR         0.0797
     58 H10         9.5284  -11.3669   16.3737 H         1 0AR         0.0310
     59 H11        10.2360   -9.9645   17.2451 H         1 0AR         0.0310
     60 H12         8.8759  -10.6221   19.2672 H         1 0AR         0.0314
     61 H13         8.0830  -11.8837   18.2640 H         1 0AR         0.0314
     62 H14         7.4716   -9.8955   16.6571 H         1 0AR         0.0800
     63 H15         8.7637   -8.4004   18.7608 H         1 0AR         0.1883
     64 H16         5.5662  -11.6401   15.8630 H         1 DPR         0.0524
     65 H17         5.4056   -9.8626   15.6594 H         1 DPR         0.0524
     66 H18         3.2926  -11.4337   15.0432 H         1 DPR         0.0287
     67 H19         2.9952   -9.9373   15.9913 H         1 DPR         0.0287
     68 H20         3.6227  -12.7590   17.1386 H         1 DPR         0.0313
     69 H21         2.1084  -11.8231   17.3789 H         1 DPR         0.0313
     70 H22         4.0547  -11.5022   19.2102 H         1 DPR         0.0802
     71 H23         4.5111   -8.3867   18.4226 H         1 HSE         0.1883
     72 H24         1.6993   -7.4901   18.5136 H         1 HSE         0.0801
     73 H25         2.8080   -7.8973   21.0347 H         1 HSE         0.0359
     74 H26         1.6226   -6.5952   20.6796 H         1 HSE         0.0359
     75 H27         3.3862   -5.2198   21.3830 H         1 HSE         0.0872
     76 H28         5.6033   -5.8722   21.1212 H         1 HSE         0.2122
     77 H29         3.8952   -3.5046   18.1901 H         1 HIS         0.0820
     78 H30         5.5969   -3.3922   20.6898 H         1 HIS         0.0420
     79 H31         3.8111   -3.2562   20.8284 H         1 HIS         0.0420
     80 H32         5.5465   -1.6684   17.7807 H         1 HIS         0.0729
     81 H33         5.3196    0.8911   17.9774 H         1 HIS         0.2361
     82 H34         4.3760    1.5192   20.2911 H         1 HIS         0.1199
     83 H35         5.9602   -5.9171   19.6455 H         1 UN1         0.1883
     84 H36         8.0410   -5.4802   17.5252 H         1 UN1         0.0800
     85 H37         9.1023   -5.1296   19.6473 H         1 UN1         0.0313
     86 H38         9.6239   -6.7129   18.9782 H         1 UN1         0.0313
     87 H39         7.8701   -7.7919   20.4799 H         1 UN1         0.0285
     88 H40         7.6752   -6.1871   21.2629 H         1 UN1         0.0285
     89 H41         9.2285   -7.3932   22.6149 H         1 UN1         0.0430
     90 H42        10.2034   -6.2217   21.6641 H         1 UN1         0.0430
@<TRIPOS>BOND
     1    1    2 1  
     2    2    3 2  
     3    2    4 am 
     4    4    5 ar 
     5    5    6 ar 
     6    5    7 ar 
     7    7    8 1  
     8    8    9 1  
     9    9   10 1  
    10   10   11 1  
    11   11   12 1  
    12   11   15 1  
    13   12   13 am 
    14   13   14 2  
    15   13   42 1  
    16   15   16 2  
    17   15   17 am 
    18   17   18 1  
    19   17   21 1  
    20   18   19 1  
    21   19   20 1  
    22   20   21 1  
    23   21   22 1  
    24   22   23 2  
    25   22   24 am 
    26   24   25 1  
    27   25   26 1  
    28   25   28 1  
    29   26   27 2  
    30   26   31 am 
    31   28   29 1  
    32   29   30 1  
    33   29   31 1  
    34   31   32 1  
    35   32   33 1  
    36   32   39 1  
    37   33   34 1  
    38   34   35 2  
    39   34   38 1  
    40   35   36 1  
    41   36   37 1  
    42   37   38 2  
    43   39   40 2  
    44   39   41 am 
    45   41   42 1  
    46   42   43 1  
    47   43   44 1  
    48   44   45 1  
    49   45   46 1  
    50   46   47 ar 
    51   46   48 ar 
    52    1   49 1  
    53    1   50 1  
    54    1   51 1  
    55    4   52 1  
    56    6   53 1  
    57    6   54 1  
    58    7   55 1  
    59    8   56 1  
    60    8   57 1  
    61    9   58 1  
    62    9   59 1  
    63   10   60 1  
    64   10   61 1  
    65   11   62 1  
    66   12   63 1  
    67   18   64 1  
    68   18   65 1  
    69   19   66 1  
    70   19   67 1  
    71   20   68 1  
    72   20   69 1  
    73   21   70 1  
    74   24   71 1  
    75   25   72 1  
    76   28   73 1  
    77   28   74 1  
    78   29   75 1  
    79   30   76 1  
    80   32   77 1  
    81   33   78 1  
    82   33   79 1  
    83   35   80 1  
    84   36   81 1  
    85   37   82 1  
    86   41   83 1  
    87   42   84 1  
    88   43   85 1  
    89   43   86 1  
    90   44   87 1  
    91   44   88 1  
    92   45   89 1  
    93   45   90 1  
@<TRIPOS>SUBSTRUCTURE
     1 0AR         1

