### 
### Created by X-TOOL on Mon Sep 10 21:12:52 2018
### 

@<TRIPOS>MOLECULE
1wax_ligand
   24    24     1     0     0
SMALL
GAST_HUCK


@<TRIPOS>ATOM
      1 C1         42.4890   16.7100   64.1080 C.2       1 LO1         0.1492
      2 O1         43.6980   17.1380   64.1070 O.co2     1 LO1        -0.5455
      3 OXT        41.4680   17.3540   63.6650 O.co2     1 LO1        -0.5455
      4 C2         42.2500   15.3770   64.6800 C.2       1 LO1         0.2693
      5 O2         41.7020   14.5610   63.9600 O.2       1 LO1        -0.3543
      6 C1'        42.6030   14.0600   66.7720 C.ar      1 LO1         0.0607
      7 C2'        43.5000   13.9710   67.8270 C.ar      1 LO1        -0.0469
      8 C3'        43.4860   12.8690   68.6610 C.ar      1 LO1        -0.0681
      9 C4'        42.5770   11.8590   68.4510 C.ar      1 LO1        -0.0132
     10 C5'        41.6690   11.9400   67.4130 C.ar      1 LO1        -0.0681
     11 C6'        41.6730   13.0350   66.5680 C.ar      1 LO1        -0.0469
     12 C          42.5730   10.6750   69.3680 C.3       1 LO1        -0.0082
     13 N1         41.5260   10.9510   70.3490 N.4       1 LO1         0.2289
     14 N7         42.6730   15.2070   65.9650 N.am      1 LO1        -0.2297
     15 H1         44.2141   14.7685   67.9976 H         1 LO1         0.0488
     16 H2         44.1918   12.8009   69.4809 H         1 LO1         0.0522
     17 H3         40.9508   11.1425   67.2602 H         1 LO1         0.0522
     18 H4         40.9606   13.0985   65.7535 H         1 LO1         0.0488
     19 H5         43.5486   10.5693   69.8651 H         1 LO1         0.0950
     20 H6         42.3446    9.7555   68.8091 H         1 LO1         0.0950
     21 H7         41.4688   10.1865   71.0034 H         1 LO1         0.2005
     22 H8         40.6418   11.0556   69.8764 H         1 LO1         0.2005
     23 H9         41.7451   11.8013   70.8440 H         1 LO1         0.2005
     24 H10        43.0905   16.0095   66.3913 H         1 LO1         0.2247
@<TRIPOS>BOND
     1    1    2 ar 
     2    1    3 ar 
     3    4    1 1  
     4    4    5 2  
     5   14    4 am 
     6    6    7 ar 
     7    6   11 ar 
     8    6   14 1  
     9    7    8 ar 
    10    8    9 ar 
    11    9   10 ar 
    12    9   12 1  
    13   10   11 ar 
    14   12   13 1  
    15    7   15 1  
    16    8   16 1  
    17   10   17 1  
    18   11   18 1  
    19   12   19 1  
    20   12   20 1  
    21   13   21 1  
    22   13   22 1  
    23   13   23 1  
    24   14   24 1  
@<TRIPOS>SUBSTRUCTURE
     1 LO1         1

