### 
### Created by X-TOOL on Mon Sep 10 21:12:52 2018
### 

@<TRIPOS>MOLECULE
1way_ligand
   35    37     1     0     0
SMALL
GAST_HUCK


@<TRIPOS>ATOM
      1 N1          9.4380   19.8340   51.9440 N.pl3     1 L02        -0.2187
      2 N3          9.4610   21.0800   51.3350 N.2       1 L02        -0.2257
      3 C4          9.8790   20.9360   50.0980 C.2       1 L02         0.0243
      4 C5         10.1470   19.5610   49.8810 C.2       1 L02        -0.0431
      5 C6          9.8620   18.9330   51.0430 C.2       1 L02         0.0693
      6 C7          9.9790   17.4840   51.3890 C.3       1 L02         0.0305
      7 C8         10.6700   16.6400   50.3270 C.3       1 L02         0.0038
      8 C10        10.7680   15.2030   50.8610 C.3       1 L02        -0.0313
      9 N12         9.4150   14.6860   51.1170 N.4       1 L02         0.2272
     10 C13         8.8100   15.4700   52.2180 C.3       1 L02        -0.0313
     11 C15         8.6070   16.9220   51.7550 C.3       1 L02         0.0038
     12 C20        10.9360   22.0640   48.0980 C.ar      1 L02        -0.0547
     13 C21         9.9980   22.0590   49.1420 C.ar      1 L02        -0.0171
     14 C22         9.1070   23.1330   49.3190 C.ar      1 L02        -0.0547
     15 C24         9.1440   24.2110   48.4660 C.ar      1 L02        -0.0482
     16 C26        10.0640   24.2360   47.4190 C.ar      1 L02         0.0396
     17 C28        10.9560   23.1630   47.2360 C.ar      1 L02        -0.0482
     18 CL1        10.0900   25.6240   46.3620 Cl        1 L02        -0.0711
     19 H1          9.1481   19.6357   52.9123 H         1 L02         0.2551
     20 H2         10.5098   19.1028   48.9621 H         1 L02         0.0250
     21 H3         10.6068   17.4235   52.2902 H         1 L02         0.0511
     22 H4         11.6773   17.0360   50.1310 H         1 L02         0.0345
     23 H5         10.0830   16.6545   49.3969 H         1 L02         0.0345
     24 H6         11.3465   15.1973   51.7965 H         1 L02         0.0816
     25 H7         11.2692   14.5676   50.1160 H         1 L02         0.0816
     26 H8          9.4670   13.7145   51.3807 H         1 L02         0.2013
     27 H9          8.8530   14.7789   50.2854 H         1 L02         0.2013
     28 H10         9.4780   15.4528   53.0917 H         1 L02         0.0816
     29 H11         7.8385   15.0319   52.4905 H         1 L02         0.0816
     30 H12         7.9447   16.9469   50.8771 H         1 L02         0.0345
     31 H13         8.1623   17.5162   52.5669 H         1 L02         0.0345
     32 H14        11.6255   21.2383   47.9644 H         1 L02         0.0616
     33 H15         8.3887   23.1108   50.1306 H         1 L02         0.0616
     34 H16         8.4593   25.0394   48.6074 H         1 L02         0.0621
     35 H17        11.6661   23.1896   46.4174 H         1 L02         0.0621
@<TRIPOS>BOND
     1    1    2 1  
     2    1    5 1  
     3    2    3 2  
     4    3    4 1  
     5    3   13 1  
     6    4    5 2  
     7    5    6 1  
     8    6    7 1  
     9    6   11 1  
    10    7    8 1  
    11    8    9 1  
    12    9   10 1  
    13   10   11 1  
    14   13   12 ar 
    15   12   17 ar 
    16   13   14 ar 
    17   14   15 ar 
    18   15   16 ar 
    19   16   17 ar 
    20   16   18 1  
    21    1   19 1  
    22    4   20 1  
    23    6   21 1  
    24    7   22 1  
    25    7   23 1  
    26    8   24 1  
    27    8   25 1  
    28    9   26 1  
    29    9   27 1  
    30   10   28 1  
    31   10   29 1  
    32   11   30 1  
    33   11   31 1  
    34   12   32 1  
    35   14   33 1  
    36   15   34 1  
    37   17   35 1  
@<TRIPOS>SUBSTRUCTURE
     1 L02         1

