### 
### Created by X-TOOL on Mon Sep 10 21:12:52 2018
### 

@<TRIPOS>MOLECULE
1wb0_ligand
   88    89     1     0     0
SMALL
GAST_HUCK


@<TRIPOS>ATOM
      1 C26        11.4070    1.5140   11.5580 C.3       1 VR0         0.0199
      2 N25        12.5590    1.9800   10.7560 N.am      1 VR0        -0.2765
      3 C24        13.6660    2.3480   11.3970 C.2       1 VR0         0.2581
      4 O28        13.7400    2.3340   12.6280 O.2       1 VR0        -0.4011
      5 N23        14.6680    2.7910   10.6250 N.am      1 VR0        -0.2102
      6 C22        15.8410    3.2080   11.1210 C.cat     1 VR0         0.3281
      7 N27        16.1240    3.0640   12.4230 N.pl3     1 VR0        -0.2545
      8 N21        16.7530    3.6880   10.2830 N.pl3     1 VR0        -0.2420
      9 C20        18.0480    4.1900   10.7770 C.3       1 VR0         0.0888
     10 C19        19.1640    3.7710    9.8300 C.3       1 VR0        -0.0071
     11 C18        20.5050    4.3610   10.2870 C.3       1 VR0        -0.0084
     12 C17        21.6620    3.7740    9.4700 C.3       1 VR0         0.1313
     13 C30        22.9990    4.3010   10.0260 C.2       1 VR0         0.2063
     14 O29        23.4180    3.8540   11.1000 O.2       1 VR0        -0.3942
     15 N32        23.6870    5.2010    9.2700 N.am      1 MEA        -0.2511
     16 C31        24.9310    5.7090    9.8990 C.3       1 MEA         0.0256
     17 N16        21.6290    2.3160    9.6500 N.am      1 VR0        -0.2637
     18 C15        22.3260    1.4890    8.8840 C.2       1 DAL         0.2036
     19 O14        23.0670    1.8610    7.9770 O.2       1 DAL        -0.3944
     20 C13        22.1770   -0.0010    9.2250 C.3       1 DAL         0.1281
     21 C12        21.0920   -0.6330    8.3400 C.3       1 DAL        -0.0244
     22 N11        23.4680   -0.6700    8.9750 N.am      1 DAL        -0.2657
     23 C58        24.5590   -0.4120    9.7030 C.2       1 IAS         0.1821
     24 O57        24.6000    0.3960   10.6390 O.2       1 IAS        -0.3967
     25 C56        25.8030   -1.1850    9.2800 C.3       1 IAS         0.0722
     26 C54        26.7980   -0.2370    8.6050 C.3       1 IAS         0.1110
     27 C53        28.0710   -1.0020    8.2140 C.2       1 IAS         0.0624
     28 O52        27.9650   -1.8730    7.3240 O.co2     1 IAS        -0.5665
     29 O55        29.1240   -0.6900    8.8140 O.co2     1 IAS        -0.5665
     30 N51        26.1820    0.3590    7.3990 N.am      1 IAS        -0.2691
     31 C50        26.3870    1.6290    7.0400 C.2       1 IAS         0.1817
     32 O49        27.1100    2.4200    7.6550 O.2       1 IAS        -0.3968
     33 C48        25.6650    2.0540    5.7570 C.3       1 IAS         0.0721
     34 C45        25.5340    3.5750    5.6580 C.3       1 IAS         0.1111
     35 C46        25.1090    3.9470    4.2310 C.2       1 IAS         0.0624
     36 O44        23.8850    4.0030    3.9940 O.co2     1 IAS        -0.5665
     37 O47        26.0300    4.1620    3.4020 O.co2     1 IAS        -0.5665
     38 N43        24.5480    4.0620    6.6690 N.am      1 IAS        -0.2672
     39 C42        24.2640    5.3580    6.8420 C.2       1 MEA         0.2057
     40 O41        24.7760    6.2650    6.1800 O.2       1 MEA        -0.3942
     41 C40        23.2100    5.6730    7.9380 C.3       1 MEA         0.1428
     42 C39        22.9580    7.1920    7.9710 C.3       1 MEA         0.0216
     43 C38        21.8380    7.5730    8.9380 C.ar      1 MEA        -0.0385
     44 C33        22.1400    7.9420   10.2690 C.ar      1 MEA        -0.0601
     45 C34        21.1050    8.3120   11.1430 C.ar      1 MEA        -0.0686
     46 C35        19.7670    8.3120   10.6980 C.ar      1 MEA        -0.0687
     47 C36        19.4660    7.9430    9.3740 C.ar      1 MEA        -0.0686
     48 C37        20.5040    7.5740    8.4940 C.ar      1 MEA        -0.0601
     49 H1         10.5766    1.2487   10.8872 H         1 VR0         0.0481
     50 H2         11.0861    2.3158   12.2392 H         1 VR0         0.0481
     51 H3         11.7014    0.6309   12.1440 H         1 VR0         0.0481
     52 H4         12.5076    2.0176    9.7580 H         1 VR0         0.1841
     53 H5         14.5343    2.8113    9.6342 H         1 VR0         0.1851
     54 H6         17.0291    3.3886   12.7923 H         1 VR0         0.3198
     55 H7         15.4364    2.6288   13.0544 H         1 VR0         0.3198
     56 H8         16.5524    3.7098    9.2730 H         1 VR0         0.3223
     57 H9         18.2428    3.7738   11.7764 H         1 VR0         0.0797
     58 H10        18.0143    5.2878   10.8371 H         1 VR0         0.0797
     59 H11        18.9350    4.1340    8.8172 H         1 VR0         0.0310
     60 H12        19.2363    2.6735    9.8185 H         1 VR0         0.0310
     61 H13        20.6588    4.1267   11.3507 H         1 VR0         0.0314
     62 H14        20.4844    5.4524   10.1512 H         1 VR0         0.0314
     63 H15        21.5582    4.0385    8.4074 H         1 VR0         0.0800
     64 H16        25.0764    5.2182   10.8726 H         1 MEA         0.0488
     65 H17        24.8505    6.7963   10.0449 H         1 MEA         0.0488
     66 H18        25.7884    5.4891    9.2459 H         1 MEA         0.0488
     67 H19        21.0594    1.9335   10.3775 H         1 VR0         0.1883
     68 H20        21.8988   -0.1131   10.2833 H         1 DAL         0.0797
     69 H21        20.9907   -1.6995    8.5895 H         1 DAL         0.0277
     70 H22        21.3752   -0.5292    7.2822 H         1 DAL         0.0277
     71 H23        20.1332   -0.1229    8.5147 H         1 DAL         0.0277
     72 H24        23.5290   -1.3399    8.2350 H         1 DAL         0.1882
     73 H25        25.5174   -1.9782    8.5734 H         1 IAS         0.0544
     74 H26        26.2722   -1.6356   10.1670 H         1 IAS         0.0544
     75 H27        27.0631    0.5661    9.3084 H         1 IAS         0.0752
     76 H28        25.5890   -0.2113    6.8305 H         1 IAS         0.1876
     77 H29        24.6593    1.6085    5.7498 H         1 IAS         0.0544
     78 H30        26.2343    1.6882    4.8898 H         1 IAS         0.0544
     79 H31        26.5103    4.0360    5.8685 H         1 IAS         0.0752
     80 H32        24.0794    3.3895    7.2419 H         1 IAS         0.1877
     81 H33        22.2702    5.1565    7.6929 H         1 MEA         0.0825
     82 H34        22.6818    7.5268    6.9603 H         1 MEA         0.0474
     83 H35        23.8833    7.6974    8.2847 H         1 MEA         0.0474
     84 H36        23.1677    7.9393   10.6139 H         1 MEA         0.0557
     85 H37        21.3353    8.5985   12.1628 H         1 MEA         0.0599
     86 H38        18.9703    8.5963   11.3759 H         1 MEA         0.0559
     87 H39        18.4377    7.9424    9.0311 H         1 MEA         0.0599
     88 H40        20.2731    7.2906    7.4735 H         1 MEA         0.0557
@<TRIPOS>BOND
     1    1    2 1  
     2    2    3 am 
     3    3    4 2  
     4    3    5 am 
     5    5    6 ar 
     6    6    7 ar 
     7    6    8 ar 
     8    8    9 1  
     9    9   10 1  
    10   10   11 1  
    11   11   12 1  
    12   12   13 1  
    13   12   17 1  
    14   13   14 2  
    15   13   15 am 
    16   15   16 1  
    17   15   41 1  
    18   17   18 am 
    19   18   19 2  
    20   18   20 1  
    21   20   21 1  
    22   20   22 1  
    23   22   23 am 
    24   23   24 2  
    25   23   25 1  
    26   25   26 1  
    27   26   27 1  
    28   26   30 1  
    29   27   28 ar 
    30   27   29 ar 
    31   30   31 am 
    32   31   32 2  
    33   31   33 1  
    34   33   34 1  
    35   34   35 1  
    36   34   38 1  
    37   35   36 ar 
    38   35   37 ar 
    39   38   39 am 
    40   39   40 2  
    41   39   41 1  
    42   41   42 1  
    43   42   43 1  
    44   43   44 ar 
    45   43   48 ar 
    46   44   45 ar 
    47   45   46 ar 
    48   46   47 ar 
    49   47   48 ar 
    50    1   49 1  
    51    1   50 1  
    52    1   51 1  
    53    2   52 1  
    54    5   53 1  
    55    7   54 1  
    56    7   55 1  
    57    8   56 1  
    58    9   57 1  
    59    9   58 1  
    60   10   59 1  
    61   10   60 1  
    62   11   61 1  
    63   11   62 1  
    64   12   63 1  
    65   16   64 1  
    66   16   65 1  
    67   16   66 1  
    68   17   67 1  
    69   20   68 1  
    70   21   69 1  
    71   21   70 1  
    72   21   71 1  
    73   22   72 1  
    74   25   73 1  
    75   25   74 1  
    76   26   75 1  
    77   30   76 1  
    78   33   77 1  
    79   33   78 1  
    80   34   79 1  
    81   38   80 1  
    82   41   81 1  
    83   42   82 1  
    84   42   83 1  
    85   44   84 1  
    86   45   85 1  
    87   46   86 1  
    88   47   87 1  
    89   48   88 1  
@<TRIPOS>SUBSTRUCTURE
     1 VR0         1

