### 
### Created by X-TOOL on Mon Sep 10 21:12:52 2018
### 

@<TRIPOS>MOLECULE
1wbg_ligand
   22    23     1     0     0
SMALL
GAST_HUCK


@<TRIPOS>ATOM
      1 C1          7.5190   20.2210   53.0210 C.3       1 L03         0.0034
      2 S2          8.5770   18.8600   52.4570 S.3       1 L03        -0.0432
      3 C3          9.3840   19.5630   51.0620 C.2       1 L03         0.1979
      4 N4         10.1790   18.9490   50.2190 N.2       1 L03        -0.2557
      5 N5         10.5760   19.7780   49.3130 N.2       1 L03        -0.2639
      6 C6         10.0870   20.9810   49.5620 C.2       1 L03         0.1522
      7 N7          9.2790   20.8610   50.6640 N.pl3     1 L03        -0.2176
      8 C8         10.2170   22.1840   48.7220 C.ar      1 L03         0.0291
      9 C9         11.1470   22.2490   47.6720 C.ar      1 L03        -0.0471
     10 C10        11.1690   23.3750   46.8460 C.ar      1 L03        -0.0453
     11 C11        10.2670   24.4170   47.0440 C.ar      1 L03         0.0422
     12 CL12       10.2920   25.8450   46.0240 Cl        1 L03        -0.0688
     13 C13         9.3370   24.3230   48.0760 C.ar      1 L03        -0.0453
     14 C14         9.2980   23.2200   48.9040 C.ar      1 L03        -0.0471
     15 H1          6.9506   19.9007   53.9066 H         1 L03         0.0373
     16 H2          6.8206   20.4995   52.2181 H         1 L03         0.0373
     17 H3          8.1441   21.0881   53.2804 H         1 L03         0.0373
     18 H4          8.7101   21.6004   51.1005 H         1 L03         0.2436
     19 H5         11.8410   21.4334   47.5042 H         1 L03         0.0642
     20 H6         11.8949   23.4383   46.0435 H         1 L03         0.0627
     21 H7          8.6311   25.1308   48.2317 H         1 L03         0.0627
     22 H8          8.5570   23.1577   49.6927 H         1 L03         0.0642
@<TRIPOS>BOND
     1    1    2 1  
     2    2    3 1  
     3    3    4 2  
     4    3    7 1  
     5    4    5 1  
     6    5    6 2  
     7    6    7 1  
     8    6    8 1  
     9    8    9 ar 
    10    8   14 ar 
    11    9   10 ar 
    12   10   11 ar 
    13   11   12 1  
    14   11   13 ar 
    15   13   14 ar 
    16    1   15 1  
    17    1   16 1  
    18    1   17 1  
    19    7   18 1  
    20    9   19 1  
    21   10   20 1  
    22   13   21 1  
    23   14   22 1  
@<TRIPOS>SUBSTRUCTURE
     1 L03         1

