### 
### Created by X-TOOL on Mon Sep 10 21:12:52 2018
### 

@<TRIPOS>MOLECULE
1wbn_ligand
   50    52     1     0     0
SMALL
GAST_HUCK


@<TRIPOS>ATOM
      1 C1          4.6140   14.2610   41.5920 C.3       1 L09        -0.0919
      2 C2          5.8450   15.1930   41.5340 C.3       1 L09        -0.0361
      3 C3          5.6740   16.3200   42.5570 C.3       1 L09        -0.0919
      4 C4          7.1040   14.3520   41.9250 C.3       1 L09        -0.0919
      5 C5          6.0560   15.7640   40.1200 C.2       1 L09         0.0476
      6 C6          6.0610   15.0720   38.9340 C.2       1 L09         0.0198
      7 C7          6.3100   15.9840   37.9150 C.2       1 L09         0.1818
      8 N8          6.3900   15.7740   36.5020 N.am      1 L09        -0.2014
      9 C9          6.1000   14.6060   35.8160 C.2       1 L09         0.3143
     10 O10         5.5610   13.6520   36.3430 O.2       1 L09        -0.3818
     11 N11         6.4220   14.5830   34.4770 N.am      1 L09        -0.2162
     12 C12         6.2570   13.5100   33.5470 C.ar      1 L09         0.0607
     13 C13         7.3000   13.3640   32.5670 C.ar      1 L09        -0.0476
     14 C14         7.2450   12.3610   31.5820 C.ar      1 L09        -0.0680
     15 C15         6.1150   11.4670   31.5390 C.ar      1 L09         0.0273
     16 CL16        6.1290   10.2730   30.2850 Cl        1 L09        -0.0910
     17 C17         5.0540   11.5830   32.5100 C.ar      1 L09        -0.0125
     18 C18         3.8350   10.6570   32.4930 C.3       1 L09         0.1034
     19 O19         3.0610   10.9960   31.3230 O.3       1 L09        -0.2977
     20 C20         2.0590   10.0990   30.9970 C.ar      1 L09         0.1221
     21 C21         1.1460   10.4820   29.9550 C.ar      1 L09        -0.0129
     22 C22         0.0820    9.6050   29.5550 C.ar      1 L09        -0.0426
     23 C23        -0.0400    8.3630   30.2040 C.ar      1 L09        -0.0002
     24 N24         0.8350    8.0040   31.1960 N.ar      1 L09        -0.3071
     25 C25         1.8600    8.7960   31.6140 C.ar      1 L09         0.0398
     26 C26         5.1170   12.6090   33.5070 C.ar      1 L09        -0.0375
     27 N27         6.4480   17.1660   38.4640 N.2       1 L09        -0.1419
     28 N28         6.2940   17.0560   39.8300 N.pl3     1 L09        -0.2072
     29 H1          4.4955   13.8734   42.6146 H         1 L09         0.0103
     30 H2          4.7567   13.4213   40.8959 H         1 L09         0.0103
     31 H3          3.7135   14.8247   41.3069 H         1 L09         0.0103
     32 H4          6.5488   16.9858   42.5186 H         1 L09         0.0103
     33 H5          5.5848   15.8895   43.5653 H         1 L09         0.0103
     34 H6          4.7657   16.8941   42.3217 H         1 L09         0.0103
     35 H7          7.2407   13.5372   41.1987 H         1 L09         0.0103
     36 H8          6.9638   13.9276   42.9301 H         1 L09         0.0103
     37 H9          7.9932   14.9995   41.9212 H         1 L09         0.0103
     38 H10         5.8991   14.0019   38.8135 H         1 L09         0.0757
     39 H11         6.6870   16.5537   35.9507 H         1 L09         0.2225
     40 H12         6.8215   15.4227   34.1091 H         1 L09         0.2262
     41 H13         8.1462   14.0412   32.5880 H         1 L09         0.0448
     42 H14         8.0473   12.2611   30.8599 H         1 L09         0.0567
     43 H15         3.2328   10.8092   33.4009 H         1 L09         0.0781
     44 H16         4.1593    9.6072   32.4397 H         1 L09         0.0781
     45 H17         1.2620   11.4426   29.4663 H         1 L09         0.0663
     46 H18        -0.6103    9.8929   28.7721 H         1 L09         0.0681
     47 H19        -0.8339    7.6831   29.9167 H         1 L09         0.0729
     48 H20         2.5240    8.4584   32.4015 H         1 L09         0.0751
     49 H21         4.3164   12.7135   34.2303 H         1 L09         0.0437
     50 H22         6.3512   17.8280   40.5094 H         1 L09         0.2599
@<TRIPOS>BOND
     1    1    2 1  
     2    2    3 1  
     3    2    4 1  
     4    2    5 1  
     5    5    6 2  
     6    5   28 1  
     7    6    7 1  
     8    7    8 1  
     9    7   27 2  
    10    8    9 am 
    11    9   10 2  
    12    9   11 am 
    13   11   12 1  
    14   12   13 ar 
    15   12   26 ar 
    16   13   14 ar 
    17   14   15 ar 
    18   15   16 1  
    19   15   17 ar 
    20   17   18 1  
    21   17   26 ar 
    22   18   19 1  
    23   19   20 1  
    24   20   21 ar 
    25   20   25 ar 
    26   21   22 ar 
    27   22   23 ar 
    28   23   24 ar 
    29   24   25 ar 
    30   27   28 1  
    31    1   29 1  
    32    1   30 1  
    33    1   31 1  
    34    3   32 1  
    35    3   33 1  
    36    3   34 1  
    37    4   35 1  
    38    4   36 1  
    39    4   37 1  
    40    6   38 1  
    41    8   39 1  
    42   11   40 1  
    43   13   41 1  
    44   14   42 1  
    45   18   43 1  
    46   18   44 1  
    47   21   45 1  
    48   22   46 1  
    49   23   47 1  
    50   25   48 1  
    51   26   49 1  
    52   28   50 1  
@<TRIPOS>SUBSTRUCTURE
     1 L09         1

