### 
### Created by X-TOOL on Mon Sep 10 21:12:52 2018
### 

@<TRIPOS>MOLECULE
1wbo_ligand
   13    13     1     0     0
SMALL
GAST_HUCK


@<TRIPOS>ATOM
      1 C1          5.1500   12.7340   31.7650 C.ar      1 2CH         0.1020
      2 C2          6.2720   12.7150   32.6280 C.ar      1 2CH        -0.0327
      3 C3          7.4260   11.9570   32.2440 C.ar      1 2CH        -0.0704
      4 C4          7.4440   11.2400   31.0320 C.ar      1 2CH        -0.0723
      5 C5          6.3460   11.2250   30.1550 C.ar      1 2CH        -0.0566
      6 C6          5.1910   11.9880   30.5400 C.ar      1 2CH         0.0676
      7 O           4.0220   13.4590   32.0860 O.3       1 2CH        -0.3322
      8 CL8         3.8090   12.0580   29.5210 Cl        1 2CH        -0.0788
      9 H1          6.2585   13.2640   33.5626 H         1 2CH         0.0542
     10 H2          8.2939   11.9353   32.8931 H         1 2CH         0.0591
     11 H3          8.3342   10.6812   30.7668 H         1 2CH         0.0523
     12 H4          6.3694   10.6625   29.2287 H         1 2CH         0.0595
     13 H5          4.1526   13.8925   32.9212 H         1 2CH         0.2485
@<TRIPOS>BOND
     1    1    2 ar 
     2    1    6 ar 
     3    1    7 1  
     4    2    3 ar 
     5    3    4 ar 
     6    4    5 ar 
     7    5    6 ar 
     8    6    8 1  
     9    2    9 1  
    10    3   10 1  
    11    4   11 1  
    12    5   12 1  
    13    7   13 1  
@<TRIPOS>SUBSTRUCTURE
     1 2CH         1

