### 
### Created by X-TOOL on Mon Sep 10 21:12:52 2018
### 

@<TRIPOS>MOLECULE
1wbs_ligand
   58    62     1     0     0
SMALL
GAST_HUCK


@<TRIPOS>ATOM
      1 F1          8.3180   17.9930   37.4450 F         1 LI2        -0.1859
      2 C2          7.6970   16.8470   37.7910 C.ar      1 LI2         0.1263
      3 C3          7.4690   16.5540   39.1310 C.ar      1 LI2        -0.0070
      4 C4          6.8000   15.3920   39.5290 C.ar      1 LI2         0.0438
      5 C5          6.4230   14.5080   38.5100 C.ar      1 LI2        -0.0283
      6 C6          6.6510   14.7930   37.1560 C.ar      1 LI2         0.0419
      7 C7          7.2950   15.9760   36.7940 C.ar      1 LI2        -0.0214
      8 C8          6.2270   13.8110   36.1220 C.2       1 LI2         0.2253
      9 O9          5.2390   13.1310   36.3430 O.2       1 LI2        -0.3747
     10 N10         7.0090   13.6810   35.0110 N.am      1 LI2        -0.2412
     11 C11         6.8070   12.7690   33.9560 C.ar      1 LI2         0.0480
     12 C12         7.8600   11.9170   33.5820 C.ar      1 LI2        -0.0523
     13 C13         7.7290   11.0010   32.5530 C.ar      1 LI2        -0.0526
     14 C14         6.5350   10.9230   31.8540 C.ar      1 LI2         0.0482
     15 N15         6.1000   10.1270   30.8130 N.pl3     1 LI2        -0.2951
     16 C17         4.8030   10.4600   30.5020 C.2       1 LI2         0.0135
     17 C18         4.3710   11.4520   31.3070 C.2       1 LI2        -0.0493
     18 C19         3.0110   12.1060   31.3050 C.3       1 LI2        -0.0258
     19 C20         2.2040   11.6290   32.5140 C.3       1 LI2        -0.0077
     20 C21         1.7530   10.1990   32.3490 C.ar      1 LI2        -0.0220
     21 C22         0.6990    9.8620   31.5030 C.ar      1 LI2        -0.0323
     22 C23         0.3190    8.5320   31.3850 C.ar      1 LI2         0.0031
     23 N24         0.9390    7.5840   32.0770 N.ar      1 LI2        -0.3066
     24 C25         1.9410    7.8700   32.8890 C.ar      1 LI2         0.0031
     25 C26         2.3770    9.1750   33.0560 C.ar      1 LI2        -0.0323
     26 C27         5.4710   11.7790   32.2170 C.ar      1 LI2        -0.0359
     27 C28         5.6130   12.7130   33.2620 C.ar      1 LI2        -0.0572
     28 N29         6.5920   15.0760   40.9080 N.pl3     1 LI2        -0.3045
     29 C30         5.6800   13.9520   41.1820 C.3       1 LI2         0.0501
     30 C31         5.8330   13.5300   42.6410 C.3       1 LI2         0.0673
     31 O32         5.4740   14.6290   43.4950 O.3       1 LI2        -0.3759
     32 C33         6.3890   15.7080   43.2810 C.3       1 LI2         0.0673
     33 C34         6.3200   16.2010   41.8310 C.3       1 LI2         0.0501
     34 H1          7.8196   17.2456   39.8885 H         1 LI2         0.0534
     35 H2          5.9401   13.5747   38.7763 H         1 LI2         0.0531
     36 H3          7.4772   16.2087   35.7510 H         1 LI2         0.0544
     37 H4          7.7991   14.2898   34.9390 H         1 LI2         0.2212
     38 H5          8.8020   11.9791   34.1148 H         1 LI2         0.0454
     39 H6          8.5554   10.3485   32.2953 H         1 LI2         0.0520
     40 H7          6.6584    9.3995   30.3441 H         1 LI2         0.2187
     41 H8          4.2099    9.9905   29.7186 H         1 LI2         0.0788
     42 H9          2.4779   11.8370   30.3812 H         1 LI2         0.0371
     43 H10         3.1311   13.1983   31.3543 H         1 LI2         0.0371
     44 H11         1.3188   12.2718   32.6289 H         1 LI2         0.0466
     45 H12         2.8312   11.7042   33.4145 H         1 LI2         0.0466
     46 H13         0.1804   10.6310   30.9420 H         1 LI2         0.0651
     47 H14        -0.4939    8.2644   30.7197 H         1 LI2         0.0803
     48 H15         2.4304    7.0707   33.4338 H         1 LI2         0.0803
     49 H16         3.1961    9.3961   33.7307 H         1 LI2         0.0651
     50 H17         4.7969   13.3788   33.5184 H         1 LI2         0.0387
     51 H18         5.9305   13.1057   40.5255 H         1 LI2         0.0536
     52 H19         4.6422   14.2657   40.9961 H         1 LI2         0.0536
     53 H20         6.8773   13.2422   42.8324 H         1 LI2         0.0579
     54 H21         5.1732   12.6743   42.8469 H         1 LI2         0.0579
     55 H22         7.4109   15.3623   43.4961 H         1 LI2         0.0579
     56 H23         6.1327   16.5375   43.9564 H         1 LI2         0.0579
     57 H24         5.3169   16.6049   41.6295 H         1 LI2         0.0536
     58 H25         7.0708   16.9900   41.6770 H         1 LI2         0.0536
@<TRIPOS>BOND
     1    1    2 1  
     2    2    3 ar 
     3    2    7 ar 
     4    3    4 ar 
     5    4    5 ar 
     6    4   28 1  
     7    5    6 ar 
     8    6    7 ar 
     9    6    8 1  
    10    8    9 2  
    11    8   10 am 
    12   10   11 1  
    13   11   12 ar 
    14   11   27 ar 
    15   12   13 ar 
    16   13   14 ar 
    17   14   15 1  
    18   14   26 ar 
    19   15   16 1  
    20   16   17 2  
    21   17   18 1  
    22   17   26 1  
    23   18   19 1  
    24   19   20 1  
    25   20   21 ar 
    26   20   25 ar 
    27   21   22 ar 
    28   22   23 ar 
    29   23   24 ar 
    30   24   25 ar 
    31   26   27 ar 
    32   28   29 1  
    33   28   33 1  
    34   29   30 1  
    35   30   31 1  
    36   31   32 1  
    37   32   33 1  
    38    3   34 1  
    39    5   35 1  
    40    7   36 1  
    41   10   37 1  
    42   12   38 1  
    43   13   39 1  
    44   15   40 1  
    45   16   41 1  
    46   18   42 1  
    47   18   43 1  
    48   19   44 1  
    49   19   45 1  
    50   21   46 1  
    51   22   47 1  
    52   24   48 1  
    53   25   49 1  
    54   27   50 1  
    55   29   51 1  
    56   29   52 1  
    57   30   53 1  
    58   30   54 1  
    59   32   55 1  
    60   32   56 1  
    61   33   57 1  
    62   33   58 1  
@<TRIPOS>SUBSTRUCTURE
     1 LI2         1

