### 
### Created by X-TOOL on Mon Sep 10 21:12:53 2018
### 

@<TRIPOS>MOLECULE
1wbt_ligand
   58    62     1     0     0
SMALL
GAST_HUCK


@<TRIPOS>ATOM
      1 F1          8.5170   17.8710   37.3420 F         1 WBT        -0.1859
      2 C2          7.7780   16.7860   37.6800 C.ar      1 WBT         0.1263
      3 C3          7.3960   16.5710   39.0150 C.ar      1 WBT        -0.0070
      4 C4          6.6340   15.4460   39.4040 C.ar      1 WBT         0.0438
      5 C5          6.2390   14.5840   38.3830 C.ar      1 WBT        -0.0283
      6 C6          6.6010   14.7970   37.0300 C.ar      1 WBT         0.0423
      7 C7          7.3770   15.9070   36.6910 C.ar      1 WBT        -0.0214
      8 C8          6.1690   13.8200   35.9850 C.2       1 WBT         0.2270
      9 O9          5.1920   13.1170   36.2150 O.2       1 WBT        -0.3737
     10 N10         6.8640   13.7400   34.8010 N.am      1 WBT        -0.2386
     11 C11         6.6040   12.8000   33.7920 C.ar      1 WBT         0.0529
     12 C12         7.6230   11.9270   33.3830 C.ar      1 WBT        -0.0535
     13 C13         7.4470   10.9740   32.4070 C.ar      1 WBT        -0.0826
     14 C14         6.2130   10.9130   31.7570 C.ar      1 WBT        -0.0392
     15 C15         5.6640   10.0750   30.6820 C.2       1 WBT        -0.0725
     16 C16         4.3930   10.5140   30.5030 C.2       1 WBT         0.0171
     17 N17         4.0860   11.5530   31.3690 N.pl3     1 WBT        -0.2706
     18 C18         2.8020   12.2720   31.4770 C.3       1 WBT         0.0613
     19 C19         2.0160   11.7110   32.6740 C.3       1 WBT         0.0145
     20 C20         1.6870   10.2690   32.4170 C.ar      1 WBT        -0.0206
     21 C21         0.6300    9.9180   31.5660 C.ar      1 WBT        -0.0324
     22 C22         0.3780    8.5670   31.3380 C.ar      1 WBT         0.0031
     23 N23         1.1140    7.6290   31.9090 N.ar      1 WBT        -0.3066
     24 C24         2.1390    7.9340   32.7000 C.ar      1 WBT         0.0031
     25 C25         2.4560    9.2530   32.9810 C.ar      1 WBT        -0.0324
     26 C26         5.1780   11.8210   32.1440 C.ar      1 WBT         0.0521
     27 C27         5.3800   12.7690   33.1510 C.ar      1 WBT        -0.0246
     28 N28         6.1980   15.2360   40.7580 N.pl3     1 WBT        -0.3045
     29 C29         6.1570   13.8640   41.2690 C.3       1 WBT         0.0501
     30 C30         5.3990   13.8950   42.5930 C.3       1 WBT         0.0673
     31 O31         6.0730   14.6950   43.5610 O.3       1 WBT        -0.3759
     32 C32         6.2140   16.0430   43.1350 C.3       1 WBT         0.0673
     33 C33         6.7520   16.1990   41.7220 C.3       1 WBT         0.0501
     34 H1          7.6948   17.2898   39.7694 H         1 WBT         0.0534
     35 H2          5.6335   13.7202   38.6327 H         1 WBT         0.0531
     36 H3          7.6631   16.0785   35.6596 H         1 WBT         0.0544
     37 H4          7.6039   14.3953   34.6489 H         1 WBT         0.2236
     38 H5          8.5940   12.0072   33.8581 H         1 WBT         0.0442
     39 H6          8.2458   10.2880   32.1492 H         1 WBT         0.0519
     40 H7          6.1690    9.2737   30.1445 H         1 WBT         0.0266
     41 H8          3.7002   10.1020   29.7707 H         1 WBT         0.0874
     42 H9          2.2205   12.1299   30.5542 H         1 WBT         0.0624
     43 H10         2.9912   13.3448   31.6297 H         1 WBT         0.0624
     44 H11         1.0855   12.2831   32.8037 H         1 WBT         0.0478
     45 H12         2.6264   11.7922   33.5855 H         1 WBT         0.0478
     46 H13         0.0215   10.6817   31.0952 H         1 WBT         0.0651
     47 H14        -0.4353    8.2801   30.6813 H         1 WBT         0.0803
     48 H15         2.7354    7.1382   33.1314 H         1 WBT         0.0803
     49 H16         3.2905    9.4914   33.6305 H         1 WBT         0.0651
     50 H17         4.5942   13.4644   33.4231 H         1 WBT         0.0399
     51 H18         7.1794   13.4914   41.4294 H         1 WBT         0.0536
     52 H19         5.6368   13.2110   40.5528 H         1 WBT         0.0536
     53 H20         5.3089   12.8684   42.9777 H         1 WBT         0.0579
     54 H21         4.3956   14.3115   42.4210 H         1 WBT         0.0579
     55 H22         6.9037   16.5519   43.8244 H         1 WBT         0.0579
     56 H23         5.2262   16.5246   43.1827 H         1 WBT         0.0579
     57 H24         6.5135   17.2141   41.3719 H         1 WBT         0.0536
     58 H25         7.8438   16.0684   41.7519 H         1 WBT         0.0536
@<TRIPOS>BOND
     1    1    2 1  
     2    2    3 ar 
     3    2    7 ar 
     4    3    4 ar 
     5    4    5 ar 
     6    4   28 1  
     7    5    6 ar 
     8    6    7 ar 
     9    6    8 1  
    10    8    9 2  
    11    8   10 am 
    12   10   11 1  
    13   11   12 ar 
    14   11   27 ar 
    15   12   13 ar 
    16   13   14 ar 
    17   14   15 1  
    18   14   26 ar 
    19   15   16 2  
    20   16   17 1  
    21   17   18 1  
    22   17   26 1  
    23   18   19 1  
    24   19   20 1  
    25   20   21 ar 
    26   20   25 ar 
    27   21   22 ar 
    28   22   23 ar 
    29   23   24 ar 
    30   24   25 ar 
    31   26   27 ar 
    32   28   29 1  
    33   28   33 1  
    34   29   30 1  
    35   30   31 1  
    36   31   32 1  
    37   32   33 1  
    38    3   34 1  
    39    5   35 1  
    40    7   36 1  
    41   10   37 1  
    42   12   38 1  
    43   13   39 1  
    44   15   40 1  
    45   16   41 1  
    46   18   42 1  
    47   18   43 1  
    48   19   44 1  
    49   19   45 1  
    50   21   46 1  
    51   22   47 1  
    52   24   48 1  
    53   25   49 1  
    54   27   50 1  
    55   29   51 1  
    56   29   52 1  
    57   30   53 1  
    58   30   54 1  
    59   32   55 1  
    60   32   56 1  
    61   33   57 1  
    62   33   58 1  
@<TRIPOS>SUBSTRUCTURE
     1 WBT         1

