### 
### Created by X-TOOL on Mon Sep 10 21:12:52 2018
### 

@<TRIPOS>MOLECULE
1wbv_ligand
   43    46     1     0     0
SMALL
GAST_HUCK


@<TRIPOS>ATOM
      1 F1          8.4050   18.4910   36.4830 F         1 LI3        -0.1859
      2 C2          7.6350   17.4410   36.8400 C.ar      1 LI3         0.1263
      3 C3          7.4030   17.1950   38.1810 C.ar      1 LI3        -0.0070
      4 C4          6.5850   16.1280   38.5840 C.ar      1 LI3         0.0438
      5 C5          6.0370   15.2960   37.6020 C.ar      1 LI3        -0.0283
      6 C6          6.2710   15.5390   36.2440 C.ar      1 LI3         0.0420
      7 C7          7.0810   16.6180   35.8690 C.ar      1 LI3        -0.0214
      8 C8          5.6700   14.6100   35.2400 C.2       1 LI3         0.2254
      9 O9          4.7170   13.9150   35.5760 O.2       1 LI3        -0.3746
     10 N10         6.2310   14.5220   34.0000 N.am      1 LI3        -0.2409
     11 C11         5.7770   13.6530   32.9750 C.ar      1 LI3         0.0482
     12 C12         4.4250   13.5690   32.6220 C.ar      1 LI3        -0.0520
     13 C13         3.9950   12.7190   31.6210 C.ar      1 LI3        -0.0517
     14 C14         4.9240   11.9350   30.9260 C.ar      1 LI3         0.0514
     15 N15         4.8220   11.0180   29.8940 N.pl3     1 LI3        -0.2860
     16 C17         6.0630   10.5350   29.5840 C.2       1 LI3         0.0181
     17 C18         6.9810   11.1110   30.3670 C.2       1 LI3        -0.0693
     18 C19         6.2880   12.0290   31.2620 C.ar      1 LI3        -0.0425
     19 C20         6.7100   12.8890   32.2890 C.ar      1 LI3        -0.0578
     20 N21         6.3750   15.8820   39.9590 N.pl3     1 LI3        -0.3045
     21 C22         5.4610   14.7780   40.3130 C.3       1 LI3         0.0501
     22 C23         5.5990   14.4920   41.8040 C.3       1 LI3         0.0673
     23 O24         5.3600   15.6820   42.5740 O.3       1 LI3        -0.3759
     24 C25         6.3440   16.6720   42.2460 C.3       1 LI3         0.0673
     25 C26         6.1450   17.0800   40.7890 C.3       1 LI3         0.0501
     26 H1          7.8581   17.8336   38.9294 H         1 LI3         0.0534
     27 H2          5.4234   14.4524   37.8968 H         1 LI3         0.0531
     28 H3          7.2755   16.8107   34.8201 H         1 LI3         0.0544
     29 H4          7.0151   15.1096   33.8000 H         1 LI3         0.2215
     30 H5          3.7006   14.1833   33.1445 H         1 LI3         0.0453
     31 H6          2.9411   12.6593   31.3744 H         1 LI3         0.0523
     32 H7          3.9448   10.7416   29.4303 H         1 LI3         0.2240
     33 H8          6.2722    9.7928   28.8150 H         1 LI3         0.0924
     34 H9          8.0541   10.9272   30.3407 H         1 LI3         0.0269
     35 H10         7.7613   12.9556   32.5449 H         1 LI3         0.0382
     36 H11         5.7253   13.8788   39.7371 H         1 LI3         0.0536
     37 H12         4.4245   15.0675   40.0856 H         1 LI3         0.0536
     38 H13         6.6164   14.1276   42.0091 H         1 LI3         0.0579
     39 H14         4.8685   13.7221   42.0931 H         1 LI3         0.0579
     40 H15         7.3523   16.2534   42.3807 H         1 LI3         0.0579
     41 H16         6.2210   17.5493   42.8981 H         1 LI3         0.0579
     42 H17         5.1200   17.4500   40.6390 H         1 LI3         0.0536
     43 H18         6.8627   17.8683   40.5181 H         1 LI3         0.0536
@<TRIPOS>BOND
     1    1    2 1  
     2    2    3 ar 
     3    2    7 ar 
     4    3    4 ar 
     5    4    5 ar 
     6    4   20 1  
     7    5    6 ar 
     8    6    7 ar 
     9    6    8 1  
    10    8    9 2  
    11    8   10 am 
    12   10   11 1  
    13   11   12 ar 
    14   11   19 ar 
    15   12   13 ar 
    16   13   14 ar 
    17   14   15 1  
    18   14   18 ar 
    19   15   16 1  
    20   16   17 2  
    21   17   18 1  
    22   18   19 ar 
    23   20   21 1  
    24   20   25 1  
    25   21   22 1  
    26   22   23 1  
    27   23   24 1  
    28   24   25 1  
    29    3   26 1  
    30    5   27 1  
    31    7   28 1  
    32   10   29 1  
    33   12   30 1  
    34   13   31 1  
    35   15   32 1  
    36   16   33 1  
    37   17   34 1  
    38   19   35 1  
    39   21   36 1  
    40   21   37 1  
    41   22   38 1  
    42   22   39 1  
    43   24   40 1  
    44   24   41 1  
    45   25   42 1  
    46   25   43 1  
@<TRIPOS>SUBSTRUCTURE
     1 LI3         1

