### 
### Created by X-TOOL on Mon Sep 10 21:12:52 2018
### 

@<TRIPOS>MOLECULE
1wbw_ligand
   33    35     1     0     0
SMALL
GAST_HUCK


@<TRIPOS>ATOM
      1 C1         23.3150   33.7280   30.2180 C.ar      1 LI4        -0.0579
      2 C2         22.5070   32.7670   30.8230 C.ar      1 LI4        -0.0249
      3 C3         21.5170   33.1940   31.7160 C.ar      1 LI4         0.1402
      4 C4         21.3980   34.5600   31.9810 C.ar      1 LI4         0.1404
      5 C6         23.1410   35.0690   30.5420 C.ar      1 LI4        -0.0168
      6 O10        20.6890   32.3100   32.3530 O.3       1 LI4        -0.3021
      7 N12        20.4400   34.9940   32.8810 N.pl3     1 LI4        -0.3248
      8 C13        17.7400   32.4630   30.9130 C.ar      1 LI4        -0.0547
      9 C15        17.7700   31.3370   31.7630 C.ar      1 LI4        -0.0096
     10 C16        16.5410   30.8490   32.3440 C.ar      1 LI4        -0.0242
     11 C17        15.3390   31.5100   32.0470 C.ar      1 LI4        -0.0569
     12 C18        15.3860   32.5830   31.2150 C.ar      1 LI4        -0.0629
     13 C19        16.5610   33.0590   30.6550 C.ar      1 LI4        -0.0625
     14 C23        18.9960   30.6800   32.0600 C.ar      1 LI4        -0.0024
     15 C24        18.9830   29.5920   32.9000 C.ar      1 LI4        -0.0582
     16 C25        17.7840   29.1280   33.4630 C.ar      1 LI4        -0.0706
     17 C26        16.5740   29.7330   33.2020 C.ar      1 LI4        -0.0631
     18 N3         22.2070   35.4430   31.4040 N.ar      1 LI4        -0.2969
     19 C9         20.2950   31.2140   31.4840 C.3       1 LI4         0.1056
     20 H1         24.0725   33.4326   29.5011 H         1 LI4         0.0566
     21 H2         22.6420   31.7133   30.6071 H         1 LI4         0.0611
     22 H3         23.7773   35.8175   30.0837 H         1 LI4         0.0677
     23 H4         20.3425   35.9989   33.0847 H         1 LI4         0.1735
     24 H5         19.8246   34.3120   33.3469 H         1 LI4         0.1735
     25 H6         18.6550   32.8432   30.4733 H         1 LI4         0.0628
     26 H7         14.3992   31.1737   32.4698 H         1 LI4         0.0609
     27 H8         14.4588   33.0919   30.9775 H         1 LI4         0.0616
     28 H9         16.5301   33.9226   30.0006 H         1 LI4         0.0601
     29 H10        19.9127   29.0848   33.1311 H         1 LI4         0.0530
     30 H11        17.8108   28.2682   34.1227 H         1 LI4         0.0595
     31 H12        15.6618   29.3558   33.6501 H         1 LI4         0.0542
     32 H13        21.0656   30.4290   31.4832 H         1 LI4         0.0789
     33 H14        20.1391   31.5758   30.4570 H         1 LI4         0.0789
@<TRIPOS>BOND
     1    2    1 ar 
     2    1    5 ar 
     3    3    2 ar 
     4    3    4 ar 
     5    6    3 1  
     6    4    7 1  
     7    4   18 ar 
     8   18    5 ar 
     9   19    6 1  
    10    9    8 ar 
    11    8   13 ar 
    12    9   10 ar 
    13   14    9 ar 
    14   10   11 ar 
    15   10   17 ar 
    16   11   12 ar 
    17   13   12 ar 
    18   14   15 ar 
    19   14   19 1  
    20   15   16 ar 
    21   16   17 ar 
    22    1   20 1  
    23    2   21 1  
    24    5   22 1  
    25    7   23 1  
    26    7   24 1  
    27    8   25 1  
    28   11   26 1  
    29   12   27 1  
    30   13   28 1  
    31   15   29 1  
    32   16   30 1  
    33   17   31 1  
    34   19   32 1  
    35   19   33 1  
@<TRIPOS>SUBSTRUCTURE
     1 LI4         1

