### 
### Created by X-TOOL on Mon Sep 10 21:12:52 2018
### 

@<TRIPOS>MOLECULE
1wcc_ligand
   12    12     1     0     0
SMALL
GAST_HUCK


@<TRIPOS>ATOM
      1 N01        28.0900    7.6280   64.7210 N.pl3     1 CIG        -0.3161
      2 C02        27.7870    6.2770   64.7620 C.ar      1 CIG         0.1362
      3 C03        28.5100    5.3820   65.6350 C.ar      1 CIG         0.0557
      4 N04        28.1010    4.0890   65.5550 N.ar      1 CIG        -0.2883
      5 C05        27.1280    3.5790   64.7730 C.ar      1 CIG         0.0426
      6 C06        26.4680    4.4930   63.9600 C.ar      1 CIG         0.1322
      7 CL07       25.2350    3.8990   62.9430 Cl        1 CIG        -0.0336
      8 N08        26.7980    5.8090   63.9530 N.ar      1 CIG        -0.2456
      9 H1         28.8344    8.0074   65.3234 H         1 CIG         0.1790
     10 H2         27.5709    8.2532   64.0881 H         1 CIG         0.1790
     11 H3         29.3056    5.7116   66.2933 H         1 CIG         0.0803
     12 H4         26.8768    2.5245   64.7781 H         1 CIG         0.0786
@<TRIPOS>BOND
     1    1    2 1  
     2    2    3 ar 
     3    2    8 ar 
     4    3    4 ar 
     5    4    5 ar 
     6    5    6 ar 
     7    6    7 1  
     8    6    8 ar 
     9    1    9 1  
    10    1   10 1  
    11    3   11 1  
    12    5   12 1  
@<TRIPOS>SUBSTRUCTURE
     1 CIG         1

