### 
### Created by X-TOOL on Mon Sep 10 21:12:52 2018
### 

@<TRIPOS>MOLECULE
1wcq_ligand
   39    39     1     0     0
SMALL
GAST_HUCK


@<TRIPOS>ATOM
      1 C1        -30.6010   54.0230   74.9030 C.2       1 DAN         0.0809
      2 C2        -31.3280   55.1730   75.6770 C.2       1 DAN         0.1091
      3 C3        -31.8500   54.9810   76.9490 C.2       1 DAN        -0.0244
      4 C4        -32.4740   56.1990   77.6530 C.3       1 DAN         0.1200
      5 C5        -32.9930   57.2210   76.7160 C.3       1 DAN         0.0458
      6 C6        -31.8610   57.6120   75.7990 C.3       1 DAN         0.1516
      7 C7        -32.2880   58.6000   74.7180 C.3       1 DAN         0.1186
      8 C8        -31.2290   58.7420   73.6870 C.3       1 DAN         0.1070
      9 C9        -31.5760   59.8940   72.7610 C.3       1 DAN         0.0727
     10 C10       -34.6070   58.9970   77.3860 C.3       1 DAN         0.0781
     11 C11       -34.6830   60.3830   78.0660 C.3       1 DAN         0.0048
     12 N5        -33.3070   58.3900   77.5400 N.4       1 DAN         0.2562
     13 O1A       -30.4860   52.8850   75.4450 O.co2     1 DAN        -0.5623
     14 O1B       -30.1630   54.2910   73.7670 O.co2     1 DAN        -0.5623
     15 O4        -33.3870   55.8950   78.7170 O.3       1 DAN        -0.3774
     16 O6        -31.4050   56.4270   75.0950 O.3       1 DAN        -0.3155
     17 O7        -33.5140   58.2550   74.0030 O.3       1 DAN        -0.3860
     18 O8        -29.9620   58.9650   74.3120 O.3       1 DAN        -0.3869
     19 O9        -30.4770   59.8680   71.8800 O.3       1 DAN        -0.3924
     20 O10       -34.8870   59.0710   76.0200 O.3       1 DAN        -0.3534
     21 H1        -31.8191   54.0048   77.4307 H         1 DAN         0.0481
     22 H2        -31.6247   56.6860   78.1544 H         1 DAN         0.0774
     23 H3        -33.8681   56.8618   76.1546 H         1 DAN         0.0929
     24 H4        -31.0451   58.0451   76.3963 H         1 DAN         0.0731
     25 H5        -32.4422   59.5723   75.2088 H         1 DAN         0.0652
     26 H6        -31.1754   57.8145   73.0981 H         1 DAN         0.0643
     27 H7        -31.6347   60.8476   73.3062 H         1 DAN         0.0584
     28 H8        -32.5233   59.7157   72.2311 H         1 DAN         0.0584
     29 H9        -35.3557   58.3473   77.8627 H         1 DAN         0.1181
     30 H10       -35.6881   60.8066   77.9236 H         1 DAN         0.0310
     31 H11       -33.9356   61.0534   77.6167 H         1 DAN         0.0310
     32 H12       -34.4795   60.2754   79.1416 H         1 DAN         0.0310
     33 H13       -32.6194   59.0971   77.3319 H         1 DAN         0.2047
     34 H14       -33.2194   58.1095   78.5042 H         1 DAN         0.2047
     35 H15       -33.5615   56.6831   79.2179 H         1 DAN         0.2129
     36 H16       -34.2244   58.1532   74.6256 H         1 DAN         0.2100
     37 H17       -29.2897   59.0384   73.6449 H         1 DAN         0.2100
     38 H18       -29.6753   60.0034   72.3715 H         1 DAN         0.2095
     39 H19       -35.7407   59.4685   75.8939 H         1 DAN         0.2154
@<TRIPOS>BOND
     1    2    1 1  
     2    1   13 ar 
     3    1   14 ar 
     4    3    2 2  
     5   16    2 1  
     6    4    3 1  
     7    5    4 1  
     8    4   15 1  
     9    5    6 1  
    10   12    5 1  
    11    6    7 1  
    12    6   16 1  
    13    7    8 1  
    14    7   17 1  
    15    8    9 1  
    16    8   18 1  
    17    9   19 1  
    18   10   11 1  
    19   10   12 1  
    20   10   20 1  
    21    3   21 1  
    22    4   22 1  
    23    5   23 1  
    24    6   24 1  
    25    7   25 1  
    26    8   26 1  
    27    9   27 1  
    28    9   28 1  
    29   10   29 1  
    30   11   30 1  
    31   11   31 1  
    32   11   32 1  
    33   12   33 1  
    34   12   34 1  
    35   15   35 1  
    36   17   36 1  
    37   18   37 1  
    38   19   38 1  
    39   20   39 1  
@<TRIPOS>SUBSTRUCTURE
     1 DAN         1

