### 
### Created by X-TOOL on Mon Sep 10 21:12:46 2018
### 

@<TRIPOS>MOLECULE
1wdn_ligand
   20    19     1     0     0
SMALL
GAST_HUCK


@<TRIPOS>ATOM
      1 N           1.8410   11.6760   14.3020 N.4       1 GLN         0.2328
      2 CA          0.7080   11.6890   15.2570 C.3       1 GLN         0.0304
      3 C          -0.6230   11.6570   14.5280 C.2       1 GLN         0.0846
      4 O          -1.5930   11.1090   15.0850 O.co2     1 GLN        -0.5643
      5 CB          0.7850   12.9500   16.1140 C.3       1 GLN         0.0192
      6 CG          1.9870   12.9610   17.0390 C.3       1 GLN         0.0437
      7 CD          1.8230   13.9530   18.1660 C.2       1 GLN         0.1738
      8 OE1         1.9210   13.6140   19.3580 O.2       1 GLN        -0.3973
      9 NE2         1.6140   15.1940   17.7960 N.am      1 GLN        -0.3009
     10 O1         -0.7439   12.1732   13.3850 O.co2     1 GLN        -0.5643
     11 H1          2.7103   11.6978   14.8118 H         1 GLN         0.2010
     12 H2          1.7835   12.4834   13.7013 H         1 GLN         0.2010
     13 H3          1.8000   10.8380   13.7434 H         1 GLN         0.2010
     14 H4          0.7795   10.8041   15.9065 H         1 GLN         0.1026
     15 H5         -0.1280   13.0165   16.7238 H         1 GLN         0.0363
     16 H6          0.8460   13.8237   15.4486 H         1 GLN         0.0363
     17 H7          2.8810   13.2292   16.4569 H         1 GLN         0.0505
     18 H8          2.1157   11.9557   17.4665 H         1 GLN         0.0505
     19 H9          1.4957   15.9082   18.4858 H         1 GLN         0.1814
     20 H10         1.5730   15.4258   16.8241 H         1 GLN         0.1814
@<TRIPOS>BOND
     1    2    3 1  
     2    2    5 1  
     3    2    1 1  
     4    5    6 1  
     5    6    7 1  
     6    7    8 2  
     7    7    9 am 
     8    3    4 ar 
     9    3   10 ar 
    10    1   11 1  
    11    1   12 1  
    12    1   13 1  
    13    2   14 1  
    14    5   15 1  
    15    5   16 1  
    16    6   17 1  
    17    6   18 1  
    18    9   19 1  
    19    9   20 1  
@<TRIPOS>SUBSTRUCTURE
     1 GLN         1

