### 
### Created by X-TOOL on Sun Sep  9 21:50:13 2018
### 

@<TRIPOS>MOLECULE
1wdq_ligand
   43    44     1     0     0
SMALL
GAST_HUCK


@<TRIPOS>ATOM
      1 C1          0.9230   28.6920   21.9830 C.3       1 NON         0.1885
      2 C2          1.7170   27.4070   21.6590 C.3       1 NON         0.1341
      3 C3          3.1030   27.8610   21.1930 C.3       1 NON         0.1141
      4 C4          2.9420   28.6640   19.9090 C.3       1 NON         0.1119
      5 C5          2.0870   29.9040   20.1930 C.3       1 NON         0.1130
      6 C6          1.7200   30.7580   18.9850 C.3       1 NON         0.0730
      7 O1          1.5100   29.4120   23.0670 O.3       1 NON        -0.3396
      8 O2          1.8620   26.6610   22.8710 O.3       1 NON        -0.3841
      9 O3          3.8820   26.6820   20.9530 O.3       1 NON        -0.3864
     10 O4          4.2560   29.1080   19.5140 O.3       1 NON        -0.3865
     11 O5          0.8360   29.4530   20.7540 O.3       1 NON        -0.3405
     12 O6          0.9830   30.0210   17.9800 O.3       1 NON        -0.3924
     13 C1'        -0.2160   32.8410   24.5710 C.2       1 NON         0.2660
     14 C2'        -0.6380   31.5880   25.1980 C.3       1 NON         0.1832
     15 C3'         0.0570   30.3000   24.8200 C.3       1 NON         0.1284
     16 C4'         0.8690   30.5740   23.5570 C.3       1 NON         0.1249
     17 C5'         1.8850   31.6670   23.9480 C.3       1 NON         0.1393
     18 C6'         2.8230   32.2800   22.9300 C.3       1 NON         0.0774
     19 O1'        -0.8270   34.1190   24.3720 O.2       1 NON        -0.3674
     20 O2'        -1.0670   31.4000   26.5250 O.3       1 NON        -0.3674
     21 O3'        -0.8750   29.2780   24.5270 O.3       1 NON        -0.3840
     22 O5'         1.1980   32.8420   24.4530 O.3       1 NON        -0.2665
     23 O6'         2.0480   32.8510   21.7950 O.3       1 NON        -0.3920
     24 H1         -0.0958   28.4111   22.2882 H         1 NON         0.0938
     25 H2          1.2131   26.8077   20.8864 H         1 NON         0.0671
     26 H3          3.5842   28.4811   21.9637 H         1 NON         0.0648
     27 H4          2.4814   28.0497   19.1213 H         1 NON         0.0647
     28 H5          2.6246   30.5342   20.9168 H         1 NON         0.0647
     29 H6          2.6458   31.1413   18.5312 H         1 NON         0.0584
     30 H7          1.1020   31.6017   19.3258 H         1 NON         0.0584
     31 H8          1.0068   26.3741   23.1692 H         1 NON         0.2101
     32 H9          3.9727   26.1935   21.7626 H         1 NON         0.2100
     33 H10         4.1863   29.6445   18.7330 H         1 NON         0.2100
     34 H11         1.5105   29.2933   17.6722 H         1 NON         0.2095
     35 H12        -1.5982   31.4833   24.6716 H         1 NON         0.0881
     36 H13         0.7159   29.9771   25.6395 H         1 NON         0.0673
     37 H14         0.2026   30.9563   22.7697 H         1 NON         0.0656
     38 H15         2.5046   31.2280   24.7438 H         1 NON         0.0700
     39 H16         3.5046   31.5044   22.5507 H         1 NON         0.0587
     40 H17         3.4073   33.0792   23.4094 H         1 NON         0.0587
     41 H18        -1.6599   30.6586   26.5630 H         1 NON         0.2136
     42 H19        -0.4099   28.4942   24.2588 H         1 NON         0.2102
     43 H20         1.4599   33.5224   22.1205 H         1 NON         0.2095
@<TRIPOS>BOND
     1    1    2 1  
     2    7    1 1  
     3    1   11 1  
     4    2    3 1  
     5    2    8 1  
     6    3    4 1  
     7    3    9 1  
     8    5    4 1  
     9    4   10 1  
    10    5    6 1  
    11   11    5 1  
    12    6   12 1  
    13   16    7 1  
    14   14   13 1  
    15   13   19 2  
    16   13   22 1  
    17   15   14 1  
    18   14   20 1  
    19   15   16 1  
    20   15   21 1  
    21   16   17 1  
    22   17   18 1  
    23   17   22 1  
    24   18   23 1  
    25    1   24 1  
    26    2   25 1  
    27    3   26 1  
    28    4   27 1  
    29    5   28 1  
    30    6   29 1  
    31    6   30 1  
    32    8   31 1  
    33    9   32 1  
    34   10   33 1  
    35   12   34 1  
    36   14   35 1  
    37   15   36 1  
    38   16   37 1  
    39   17   38 1  
    40   18   39 1  
    41   18   40 1  
    42   20   41 1  
    43   21   42 1  
    44   23   43 1  
@<TRIPOS>SUBSTRUCTURE
     1 NON         1

