### 
### Created by X-TOOL on Sun Sep  9 21:50:13 2018
### 

@<TRIPOS>MOLECULE
1wdr_ligand
   45    46     1     0     0
SMALL
GAST_HUCK


@<TRIPOS>ATOM
      1 C1          1.0040   29.0760   22.0650 C.3       1 NON         0.1884
      2 C2          1.7940   27.7970   21.7070 C.3       1 NON         0.1341
      3 C3          3.2030   28.1500   21.2210 C.3       1 NON         0.1141
      4 C4          3.0080   28.9350   19.9050 C.3       1 NON         0.1119
      5 C5          2.1880   30.2240   20.2430 C.3       1 NON         0.1130
      6 C6          1.8470   31.0510   18.9930 C.3       1 NON         0.0730
      7 O1          1.7330   29.8190   23.0650 O.3       1 NON        -0.3401
      8 O2          1.9070   26.9510   22.8950 O.3       1 NON        -0.3841
      9 O3          3.8700   26.9030   20.8850 O.3       1 NON        -0.3864
     10 O4          4.3310   29.3240   19.4950 O.3       1 NON        -0.3865
     11 O5          0.9210   29.8420   20.8390 O.3       1 NON        -0.3405
     12 O6          1.0810   30.2610   18.0500 O.3       1 NON        -0.3924
     13 C1'         0.6910   32.7760   25.8260 C.3       1 NON         0.1854
     14 C2'        -0.4190   31.7790   25.4540 C.3       1 NON         0.1339
     15 C3'         0.2690   30.5490   24.9090 C.3       1 NON         0.1144
     16 C4'         1.0510   30.9620   23.6390 C.3       1 NON         0.1184
     17 C5'         2.1840   31.8730   24.0970 C.3       1 NON         0.1134
     18 C6'         3.0410   32.4590   22.9990 C.3       1 NON         0.0730
     19 O1'         0.1300   34.0410   26.0500 O.3       1 NON        -0.3649
     20 O2'        -0.9520   31.4040   26.7710 O.3       1 NON        -0.3841
     21 O3'        -0.7720   29.6300   24.5420 O.3       1 NON        -0.3864
     22 O5'         1.5270   33.0380   24.6550 O.3       1 NON        -0.3407
     23 O6'         2.2560   33.0900   21.9490 O.3       1 NON        -0.3924
     24 H1         -0.0004   28.8265   22.4376 H         1 NON         0.0938
     25 H2          1.2609   27.2517   20.9143 H         1 NON         0.0671
     26 H3          3.7671   28.7271   21.9685 H         1 NON         0.0648
     27 H4          2.5042   28.3311   19.1359 H         1 NON         0.0647
     28 H5          2.7669   30.8417   20.9454 H         1 NON         0.0647
     29 H6          2.7799   31.3817   18.5131 H         1 NON         0.0584
     30 H7          1.2566   31.9298   19.2913 H         1 NON         0.0584
     31 H8          1.0380   26.7255   23.2056 H         1 NON         0.2101
     32 H9          4.0054   26.3945   21.6759 H         1 NON         0.2100
     33 H10         4.2726   29.8804   18.7273 H         1 NON         0.2100
     34 H11         1.5892   29.5023   17.7879 H         1 NON         0.2095
     35 H12         1.2720   32.4134   26.6868 H         1 NON         0.0935
     36 H13        -1.1740   32.1894   24.7673 H         1 NON         0.0671
     37 H14         0.9439   30.1047   25.6554 H         1 NON         0.0648
     38 H15         0.3894   31.4493   22.9077 H         1 NON         0.0651
     39 H16         2.8118   31.3494   24.8330 H         1 NON         0.0647
     40 H17         3.6412   31.6523   22.5528 H         1 NON         0.0584
     41 H18         3.7099   33.2131   23.4394 H         1 NON         0.0584
     42 H19        -0.3651   34.3067   25.2841 H         1 NON         0.2126
     43 H20        -1.3965   32.1503   27.1557 H         1 NON         0.2101
     44 H21        -0.3864   28.8609   24.1393 H         1 NON         0.2100
     45 H22         1.7386   33.7941   22.3217 H         1 NON         0.2095
@<TRIPOS>BOND
     1    1    2 1  
     2    7    1 1  
     3    1   11 1  
     4    2    3 1  
     5    2    8 1  
     6    3    4 1  
     7    3    9 1  
     8    5    4 1  
     9    4   10 1  
    10    5    6 1  
    11   11    5 1  
    12    6   12 1  
    13   16    7 1  
    14   14   13 1  
    15   13   19 1  
    16   13   22 1  
    17   15   14 1  
    18   14   20 1  
    19   15   16 1  
    20   15   21 1  
    21   16   17 1  
    22   17   18 1  
    23   17   22 1  
    24   18   23 1  
    25    1   24 1  
    26    2   25 1  
    27    3   26 1  
    28    4   27 1  
    29    5   28 1  
    30    6   29 1  
    31    6   30 1  
    32    8   31 1  
    33    9   32 1  
    34   10   33 1  
    35   12   34 1  
    36   13   35 1  
    37   14   36 1  
    38   15   37 1  
    39   16   38 1  
    40   17   39 1  
    41   18   40 1  
    42   18   41 1  
    43   19   42 1  
    44   20   43 1  
    45   21   44 1  
    46   23   45 1  
@<TRIPOS>SUBSTRUCTURE
     1 NON         1

