### 
### Created by X-TOOL on Mon Sep 10 21:12:53 2018
### 

@<TRIPOS>MOLECULE
1we2_ligand
   21    21     1     0     0
SMALL
GAST_HUCK


@<TRIPOS>ATOM
      1 C2         26.4290   33.2040   30.5960 C.2       1 DHK        -0.0472
      2 C3         26.8270   34.4880   29.8570 C.3       1 DHK         0.1076
      3 O3         26.4230   34.3770   28.4570 O.3       1 DHK        -0.3778
      4 C4         26.1820   35.7480   30.3530 C.3       1 DHK         0.1166
      5 O4         26.2460   36.6930   29.2460 O.3       1 DHK        -0.3844
      6 C5         24.7490   35.4660   30.6760 C.3       1 DHK         0.0919
      7 C1         25.4110   33.2580   31.5350 C.2       1 DHK        -0.0210
      8 C6         24.7510   34.4860   31.8360 C.3       1 DHK         0.0034
      9 C          24.9920   32.0690   32.2090 C.2       1 DHK         0.0477
     10 O1         25.8670   31.1210   32.4560 O.co2     1 DHK        -0.5666
     11 O2         23.7350   32.0920   32.5010 O.co2     1 DHK        -0.5666
     12 O5         24.0790   36.7190   31.1310 O.3       1 DHK        -0.3873
     13 H1         26.9384   32.2647   30.3861 H         1 DHK         0.0592
     14 H2         27.9192   34.5975   29.9284 H         1 DHK         0.0775
     15 H3         26.6672   35.1699   27.9943 H         1 DHK         0.2132
     16 H4         26.7056   36.1393   31.2377 H         1 DHK         0.0671
     17 H5         25.7776   36.3373   28.5000 H         1 DHK         0.2103
     18 H6         24.2277   35.0460   29.8032 H         1 DHK         0.0640
     19 H7         23.7084   34.2646   32.1080 H         1 DHK         0.0411
     20 H8         25.2608   34.9563   32.6898 H         1 DHK         0.0411
     21 H9         24.0671   37.3471   30.4184 H         1 DHK         0.2101
@<TRIPOS>BOND
     1    1    2 1  
     2    1    7 2  
     3    2    3 1  
     4    2    4 1  
     5    4    5 1  
     6    4    6 1  
     7    6    8 1  
     8    6   12 1  
     9    7    8 1  
    10    7    9 1  
    11    9   10 ar 
    12    9   11 ar 
    13    1   13 1  
    14    2   14 1  
    15    3   15 1  
    16    4   16 1  
    17    5   17 1  
    18    6   18 1  
    19    8   19 1  
    20    8   20 1  
    21   12   21 1  
@<TRIPOS>SUBSTRUCTURE
     1 DHK         1

