### 
### Created by X-TOOL on Mon Sep 10 21:12:45 2018
### 

@<TRIPOS>MOLECULE
1wht_ligand
   25    25     1     0     0
SMALL
GAST_HUCK


@<TRIPOS>ATOM
      1 C1         66.2650   32.3170   71.9920 C.2       1 BZS         0.0368
      2 C2         65.8040   33.7440   72.3260 C.3       1 BZS         0.0164
      3 CA         64.4170   33.8480   73.0340 C.3       1 BZS         0.0328
      4 C          63.3680   33.0550   72.3240 C.2       1 BZS         0.0414
      5 CB         63.8890   35.2680   73.1360 C.3       1 BZS        -0.0032
      6 CG         63.8640   35.9840   71.8330 C.ar      1 BZS        -0.0410
      7 CD1        62.8890   35.7060   70.8730 C.ar      1 BZS        -0.0602
      8 CD2        64.8570   36.9340   71.5690 C.ar      1 BZS        -0.0602
      9 CE1        62.9350   36.4120   69.6660 C.ar      1 BZS        -0.0686
     10 CE2        64.8970   37.6770   70.3890 C.ar      1 BZS        -0.0686
     11 CZ         63.9190   37.3880   69.4310 C.ar      1 BZS        -0.0687
     12 O1         66.1820   31.3660   72.8620 O.co2     1 BZS        -0.5689
     13 O2         66.7490   32.1670   70.8690 O.co2     1 BZS        -0.5689
     14 O3         62.3620   32.8050   72.9780 O.co2     1 BZS        -0.5684
     15 O4         63.5310   32.7750   71.1280 O.co2     1 BZS        -0.5684
     16 H1         65.7491   34.3123   71.3858 H         1 BZS         0.0453
     17 H2         66.5574   34.1989   72.9859 H         1 BZS         0.0453
     18 H3         64.5363   33.4473   74.0514 H         1 BZS         0.0506
     19 H4         64.5313   35.8298   73.8302 H         1 BZS         0.0448
     20 H5         62.8639   35.2311   73.5332 H         1 BZS         0.0448
     21 H6         62.1194   34.9652   71.0574 H         1 BZS         0.0557
     22 H7         65.6278   37.0996   72.3130 H         1 BZS         0.0557
     23 H8         62.1988   36.2027   68.8984 H         1 BZS         0.0599
     24 H9         65.6484   38.4403   70.2225 H         1 BZS         0.0599
     25 H10        63.9201   37.9266   68.4903 H         1 BZS         0.0559
@<TRIPOS>BOND
     1    1   13 ar 
     2    1   12 ar 
     3    1    2 1  
     4    2    3 1  
     5    3    5 1  
     6    3    4 1  
     7    4   15 ar 
     8    4   14 ar 
     9    5    6 1  
    10    6    8 ar 
    11    6    7 ar 
    12    7    9 ar 
    13    9   11 ar 
    14   11   10 ar 
    15   10    8 ar 
    16    2   16 1  
    17    2   17 1  
    18    3   18 1  
    19    5   19 1  
    20    5   20 1  
    21    7   21 1  
    22    8   22 1  
    23    9   23 1  
    24   10   24 1  
    25   11   25 1  
@<TRIPOS>SUBSTRUCTURE
     1 BZS         1

