### 
### Created by X-TOOL on Mon Sep 10 21:12:53 2018
### 

@<TRIPOS>MOLECULE
1wkm_ligand
   20    19     1     0     0
SMALL
GAST_HUCK


@<TRIPOS>ATOM
      1 N          49.1320   61.3430   -0.2750 N.4       1 MET         0.2327
      2 CA         50.5770   60.9600   -0.1400 C.3       1 MET         0.0291
      3 C          51.0840   61.7160    1.0610 C.2       1 MET         0.0844
      4 O          52.2540   61.9680    1.1200 O.co2     1 MET        -0.5643
      5 CB         51.2890   61.4160   -1.4330 C.3       1 MET         0.0114
      6 CG         51.0510   60.3850   -2.5360 C.3       1 MET         0.0001
      7 SD         51.8850   60.7200   -4.0750 S.3       1 MET        -0.1638
      8 CE         53.3540   59.7990   -3.8570 C.3       1 MET        -0.0181
      9 OXT        50.3620   62.0760    1.9650 O.co2     1 MET        -0.5643
     10 H1         48.7308   60.8666   -1.0675 H         1 MET         0.2010
     11 H2         49.0596   62.3393   -0.4100 H         1 MET         0.2010
     12 H3         48.6351   61.0803    0.5618 H         1 MET         0.2010
     13 H4         50.6974   59.8760    0.0028 H         1 MET         0.1024
     14 H5         52.3687   61.5083   -1.2441 H         1 MET         0.0347
     15 H6         50.8874   62.3902   -1.7488 H         1 MET         0.0347
     16 H7         49.9702   60.3430   -2.7361 H         1 MET         0.0379
     17 H8         51.3941   59.4068   -2.1682 H         1 MET         0.0379
     18 H9         53.9906   59.9080   -4.7474 H         1 MET         0.0340
     19 H10        53.1034   58.7376   -3.7132 H         1 MET         0.0340
     20 H11        53.8927   60.1716   -2.9733 H         1 MET         0.0340
@<TRIPOS>BOND
     1    1    2 1  
     2    2    3 1  
     3    2    5 1  
     4    3    4 ar 
     5    3    9 ar 
     6    5    6 1  
     7    6    7 1  
     8    7    8 1  
     9    1   10 1  
    10    1   11 1  
    11    1   12 1  
    12    2   13 1  
    13    5   14 1  
    14    5   15 1  
    15    6   16 1  
    16    6   17 1  
    17    8   18 1  
    18    8   19 1  
    19    8   20 1  
@<TRIPOS>SUBSTRUCTURE
     1 MET         1

