### 
### Created by X-TOOL on Mon Sep 10 21:12:51 2018
### 

@<TRIPOS>MOLECULE
1wm1_ligand
   34    35     1     0     0
SMALL
GAST_HUCK


@<TRIPOS>ATOM
      1 N          18.6800   -0.4760   -9.3240 N.4       1 PTB         0.2457
      2 CA         19.2460    0.2360   -8.1280 C.3       1 PTB         0.0654
      3 C          20.7360   -0.0180   -7.9670 C.2       1 PTB         0.2689
      4 O          21.1800   -1.1050   -7.6480 O.2       1 PTB        -0.3424
      5 CB         18.4130   -0.1730   -6.9120 C.3       1 PTB         0.0119
      6 CG         17.0900   -0.6470   -7.4630 C.3       1 PTB        -0.0053
      7 CD         17.3560   -1.0600   -8.9040 C.3       1 PTB        -0.0313
      8 C2         21.5840    1.1390   -8.1950 C.2       1 PTB         0.3198
      9 N3         21.2760    2.3710   -8.6440 N.2       1 PTB        -0.1423
     10 N4         22.3680    3.1040   -8.6820 N.2       1 PTB        -0.1526
     11 C5         23.4300    2.3720   -8.2560 C.2       1 PTB         0.2108
     12 O1         22.9740    1.0760   -7.9250 O.3       1 PTB        -0.1665
     13 C6         24.8840    2.7160   -8.1010 C.3       1 PTB         0.0122
     14 C7         25.0010    4.0230   -7.3180 C.3       1 PTB        -0.0775
     15 C8         25.5060    2.8940   -9.4810 C.3       1 PTB        -0.0775
     16 C9         25.6000    1.5920   -7.3540 C.3       1 PTB        -0.0775
     17 H1         19.3048   -1.2106   -9.6172 H         1 PTB         0.2034
     18 H2         18.5464    0.1742  -10.0826 H         1 PTB         0.2034
     19 H3         19.1176    1.3182   -8.2775 H         1 PTB         0.1090
     20 H4         18.2635    0.6871   -6.2428 H         1 PTB         0.0347
     21 H5         18.9115   -0.9841   -6.3610 H         1 PTB         0.0347
     22 H6         16.3493    0.1656   -7.4294 H         1 PTB         0.0320
     23 H7         16.7199   -1.5048   -6.8823 H         1 PTB         0.0320
     24 H8         17.3931   -2.1570   -8.9762 H         1 PTB         0.0814
     25 H9         16.5565   -0.6765   -9.5549 H         1 PTB         0.0814
     26 H10        26.0626    4.2849   -7.1983 H         1 PTB         0.0140
     27 H11        24.5400    3.8993   -6.3270 H         1 PTB         0.0140
     28 H12        24.4847    4.8256   -7.8650 H         1 PTB         0.0140
     29 H13        25.4220    1.9534  -10.0451 H         1 PTB         0.0140
     30 H14        26.5670    3.1633   -9.3730 H         1 PTB         0.0140
     31 H15        24.9778    3.6937  -10.0209 H         1 PTB         0.0140
     32 H16        25.1480    1.4671   -6.3590 H         1 PTB         0.0140
     33 H17        26.6648    1.8451   -7.2439 H         1 PTB         0.0140
     34 H18        25.5026    0.6546   -7.9212 H         1 PTB         0.0140
@<TRIPOS>BOND
     1    1    2 1  
     2    1    7 1  
     3    2    3 1  
     4    2    5 1  
     5    3    4 2  
     6    3    8 1  
     7    5    6 1  
     8    6    7 1  
     9    8    9 2  
    10    8   12 1  
    11    9   10 1  
    12   10   11 2  
    13   11   12 1  
    14   11   13 1  
    15   13   14 1  
    16   13   15 1  
    17   13   16 1  
    18    1   17 1  
    19    1   18 1  
    20    2   19 1  
    21    5   20 1  
    22    5   21 1  
    23    6   22 1  
    24    6   23 1  
    25    7   24 1  
    26    7   25 1  
    27   14   26 1  
    28   14   27 1  
    29   14   28 1  
    30   15   29 1  
    31   15   30 1  
    32   15   31 1  
    33   16   32 1  
    34   16   33 1  
    35   16   34 1  
@<TRIPOS>SUBSTRUCTURE
     1 PTB         1

