### 
### Created by X-TOOL on Mon Sep 10 21:12:53 2018
### 

@<TRIPOS>MOLECULE
1wn6_ligand
   61    62     1     0     0
SMALL
GAST_HUCK


@<TRIPOS>ATOM
      1 O4         46.6990   17.2620   36.2980 O.co2     1 BST        -0.5661
      2 N1         43.4550   14.7250   38.7110 N.am      1 BST        -0.1061
      3 C2         42.4780   13.7010   38.3580 C.2       1 BST         0.3336
      4 O2         41.4790   13.9360   37.6870 O.2       1 BST        -0.3681
      5 N3         42.7060   12.3840   38.8200 N.am      1 BST        -0.2605
      6 C4         43.8920   12.1000   39.6210 C.3       1 BST         0.1230
      7 C5         44.8850   13.2150   39.9610 C.2       1 BST         0.0137
      8 C6         44.6230   14.4350   39.5010 C.2       1 BST         0.1234
      9 C1'        43.1930   16.1080   38.2030 C.3       1 BST         0.2208
     10 C2'        42.7350   17.1080   39.2230 C.2       1 BST        -0.0298
     11 C3'        43.1900   18.3810   39.3190 C.2       1 BST        -0.0640
     12 C4'        44.2990   18.7230   38.2380 C.3       1 BST         0.0973
     13 C5'        44.3650   17.7800   37.0000 C.3       1 BST         0.1460
     14 O5'        44.4280   16.4620   37.5430 O.3       1 BST        -0.3112
     15 O3         45.4530   18.5870   35.0040 O.co2     1 BST        -0.5661
     16 C6'        45.6320   17.7910   36.1400 C.2       1 BST         0.0681
     17 N6         44.1420   20.1030   37.7560 N.am      1 BST        -0.2716
     18 C7         45.0600   21.1620   37.6990 C.2       1 BST         0.1834
     19 O7         46.2230   21.0070   38.0990 O.2       1 BST        -0.3967
     20 C8         44.5420   22.4810   37.1220 C.3       1 BST         0.0802
     21 C9         45.3450   23.7450   37.5380 C.3       1 BST        -0.0042
     22 N9         46.7640   23.7470   37.1480 N.4       1 BST         0.2225
     23 C10        44.6930   25.0390   36.9530 C.3       1 BST         0.0256
     24 C11        43.7650   25.7790   37.9600 C.3       1 BST         0.0698
     25 N12        43.0250   26.9150   37.3940 N.pl3     1 BST        -0.2622
     26 C13        43.7320   28.1980   37.2870 C.3       1 BST         0.0537
     27 C14        41.6780   26.7580   36.9520 C.cat     1 BST         0.2901
     28 N14        40.8710   27.9390   37.0420 N.pl3     1 BST        -0.2848
     29 N15        41.1290   25.6780   36.4910 N.pl3     1 BST        -0.2848
     30 N4         44.6870   11.0650   38.8750 N.4       1 BST         0.1583
     31 O6         43.3620   11.5250   40.7980 O.3       1 BST        -0.4133
     32 H1         42.0597   11.6534   38.5995 H         1 BST         0.1704
     33 H2         45.7738   13.0161   40.5580 H         1 BST         0.0476
     34 H3         45.3163   15.2430   39.7300 H         1 BST         0.1777
     35 H4         42.3947   16.0520   37.4483 H         1 BST         0.1174
     36 H5         41.9806   16.7871   39.9398 H         1 BST         0.0511
     37 H6         42.8319   19.0939   40.0602 H         1 BST         0.0476
     38 H7         45.2693   18.6484   38.7507 H         1 BST         0.0725
     39 H8         43.4783   17.9439   36.3700 H         1 BST         0.0814
     40 H9         43.2293   20.3232   37.4117 H         1 BST         0.1880
     41 H10        43.5021   22.6134   37.4553 H         1 BST         0.0559
     42 H11        44.5688   22.4065   36.0249 H         1 BST         0.0559
     43 H12        45.3038   23.8017   38.6358 H         1 BST         0.0877
     44 H13        47.1969   24.6022   37.4599 H         1 BST         0.1998
     45 H14        46.8369   23.6799   36.1449 H         1 BST         0.1998
     46 H15        47.2302   22.9603   37.5721 H         1 BST         0.1998
     47 H16        44.0972   24.7602   36.0713 H         1 BST         0.0356
     48 H17        45.4962   25.7269   36.6503 H         1 BST         0.0356
     49 H18        44.3864   26.1531   38.7870 H         1 BST         0.0692
     50 H19        43.0346   25.0542   38.3488 H         1 BST         0.0692
     51 H20        43.0605   28.9513   36.8493 H         1 BST         0.0653
     52 H21        44.6161   28.0770   36.6438 H         1 BST         0.0653
     53 H22        44.0489   28.5266   38.2878 H         1 BST         0.0653
     54 H23        39.8855   27.9134   36.7435 H         1 BST         0.2615
     55 H24        41.2765   28.8134   37.4052 H         1 BST         0.2615
     56 H25        41.6814   24.8121   36.4135 H         1 BST         0.2615
     57 H26        40.1403   25.6857   36.2022 H         1 BST         0.2615
     58 H27        45.5191   10.8397   39.3974 H         1 BST         0.1958
     59 H28        44.9458   11.4275   37.9708 H         1 BST         0.1958
     60 H29        44.1292   10.2338   38.7567 H         1 BST         0.1958
     61 H30        42.8594   12.1787   41.2699 H         1 BST         0.1881
@<TRIPOS>BOND
     1   16    1 ar 
     2    2    3 am 
     3    2    8 1  
     4    9    2 1  
     5    3    4 2  
     6    3    5 am 
     7    5    6 1  
     8    7    6 1  
     9    6   30 1  
    10    6   31 1  
    11    8    7 2  
    12    9   10 1  
    13   14    9 1  
    14   11   10 2  
    15   12   11 1  
    16   13   12 1  
    17   12   17 1  
    18   13   14 1  
    19   13   16 1  
    20   16   15 ar 
    21   17   18 am 
    22   18   19 2  
    23   18   20 1  
    24   20   21 1  
    25   21   22 1  
    26   21   23 1  
    27   23   24 1  
    28   24   25 1  
    29   25   26 1  
    30   25   27 ar 
    31   27   28 ar 
    32   27   29 ar 
    33    5   32 1  
    34    7   33 1  
    35    8   34 1  
    36    9   35 1  
    37   10   36 1  
    38   11   37 1  
    39   12   38 1  
    40   13   39 1  
    41   17   40 1  
    42   20   41 1  
    43   20   42 1  
    44   21   43 1  
    45   22   44 1  
    46   22   45 1  
    47   22   46 1  
    48   23   47 1  
    49   23   48 1  
    50   24   49 1  
    51   24   50 1  
    52   26   51 1  
    53   26   52 1  
    54   26   53 1  
    55   28   54 1  
    56   28   55 1  
    57   29   56 1  
    58   29   57 1  
    59   30   58 1  
    60   30   59 1  
    61   30   60 1  
    62   31   61 1  
@<TRIPOS>SUBSTRUCTURE
     1 BST         1

