### 
### Created by X-TOOL on Mon Sep 10 21:12:53 2018
### 

@<TRIPOS>MOLECULE
1wok_ligand
   30    32     1     0     0
SMALL
GAST_HUCK


@<TRIPOS>ATOM
      1 C1         12.0690   -4.7890   46.7380 C.ar      1 CNQ        -0.0442
      2 C2         10.8480   -4.1000   46.9430 C.ar      1 CNQ        -0.0260
      3 C3         10.3020   -3.2880   45.9170 C.ar      1 CNQ         0.0792
      4 C4         10.9960   -3.1530   44.6310 C.ar      1 CNQ         0.0890
      5 C5         12.2440   -3.8600   44.4230 C.ar      1 CNQ         0.0778
      6 C6         12.7620   -4.6730   45.4930 C.ar      1 CNQ        -0.0309
      7 N7          9.1070   -2.6100   46.1120 N.ar      1 CNQ        -0.2673
      8 C8          8.5560   -1.8210   45.1440 C.ar      1 CNQ         0.0510
      9 C9          9.1960   -1.6670   43.8870 C.ar      1 CNQ         0.0838
     10 N10        10.4000   -2.3360   43.6600 N.ar      1 CNQ        -0.2654
     11 C11        13.0090   -3.7840   43.1510 C.2       1 CNQ         0.2053
     12 N12        12.9910   -2.5780   42.5520 N.am      1 CNQ        -0.3002
     13 O13        13.6160   -4.6940   42.6060 O.2       1 CNQ        -0.3851
     14 C14         8.6760   -0.8300   42.7570 C.ar      1 CNQ         0.0096
     15 C15         7.2890   -0.8570   42.4700 C.ar      1 CNQ        -0.0475
     16 C16         6.7440   -0.0860   41.4130 C.ar      1 CNQ        -0.0436
     17 C17         7.6130    0.7180   40.6380 C.ar      1 CNQ         0.0440
     18 C18         8.9990    0.7620   40.9040 C.ar      1 CNQ        -0.0436
     19 C19         9.5220   -0.0190   41.9690 C.ar      1 CNQ        -0.0475
     20 CL24        6.9770    1.6500   39.3560 Cl        1 CNQ        -0.0673
     21 H1         12.4794   -5.4067   47.5286 H         1 CNQ         0.0685
     22 H2         10.3284   -4.1942   47.8897 H         1 CNQ         0.0719
     23 H3         13.6948   -5.2069   45.3517 H         1 CNQ         0.0741
     24 H4          7.6211   -1.3075   45.3373 H         1 CNQ         0.0960
     25 H5         13.4807   -2.4399   41.6911 H         1 CNQ         0.1806
     26 H6         12.4879   -1.8205   42.9681 H         1 CNQ         0.1806
     27 H7          6.6331   -1.4781   43.0692 H         1 CNQ         0.0654
     28 H8          5.6810   -0.1118   41.2022 H         1 CNQ         0.0632
     29 H9          9.6545    1.3829   40.3041 H         1 CNQ         0.0632
     30 H10        10.5850    0.0079   42.1798 H         1 CNQ         0.0654
@<TRIPOS>BOND
     1    1    2 ar 
     2    1    6 ar 
     3    2    3 ar 
     4    3    4 ar 
     5    3    7 ar 
     6    4    5 ar 
     7    4   10 ar 
     8    5    6 ar 
     9    5   11 1  
    10    7    8 ar 
    11    8    9 ar 
    12    9   10 ar 
    13    9   14 1  
    14   11   12 am 
    15   11   13 2  
    16   14   15 ar 
    17   14   19 ar 
    18   15   16 ar 
    19   16   17 ar 
    20   17   18 ar 
    21   17   20 1  
    22   18   19 ar 
    23    1   21 1  
    24    2   22 1  
    25    6   23 1  
    26    8   24 1  
    27   12   25 1  
    28   12   26 1  
    29   15   27 1  
    30   16   28 1  
    31   18   29 1  
    32   19   30 1  
@<TRIPOS>SUBSTRUCTURE
     1 CNQ         1

