### 
### Created by X-TOOL on Mon Sep 10 21:12:53 2018
### 

@<TRIPOS>MOLECULE
1wqv_ligand
   66    66     1     0     0
SMALL
GAST_HUCK


@<TRIPOS>ATOM
      1 C15        35.7210    6.8580   10.2520 C.2       1 PSM         0.2026
      2 O1         34.8600    7.1780   11.0710 O.2       1 PSM        -0.3947
      3 N17        35.6850    7.1580    8.9410 N.am      1 PSM        -0.2640
      4 C18        34.6010    7.9960    8.5170 C.3       1 PSM         0.1317
      5 C19        34.8210    8.5880    7.1290 C.3       1 PSM        -0.0034
      6 C20        36.1320    9.4050    7.0500 C.3       1 PSM        -0.0024
      7 C28        33.2660    7.2910    8.7430 C.2       1 PSM         0.2035
      8 O30        33.1530    6.0740    8.5970 O.2       1 PSM        -0.3944
      9 N31        32.2980    8.1570    9.1280 N.am      1 PSM        -0.2737
     10 C32        31.0040    7.6190    9.4260 C.3       1 PSM         0.0645
     11 C16        31.5870    6.4110   11.5780 C.ar      1 PSM        -0.0584
     12 C17        31.3830    6.1550   12.9350 C.ar      1 PSM        -0.0633
     13 C22        30.3810    6.8510   13.6590 C.ar      1 PSM         0.0188
     14 C23        29.5340    7.7550   12.9600 C.ar      1 PSM        -0.0633
     15 C24        29.7170    7.9760   11.5790 C.ar      1 PSM        -0.0584
     16 C25        30.7600    7.3300   10.8880 C.ar      1 PSM        -0.0210
     17 C26        30.2370    6.6420   15.1310 C.cat     1 PSM         0.2318
     18 N1         30.8140    5.6160   15.7290 N.pl3     1 PSM        -0.2729
     19 S2         36.4010   10.5630    8.4490 S.3       1 PSM        -0.1639
     20 C1         38.0640    6.9970   11.2430 C.3       1 PSM         0.0889
     21 O2         39.1720    6.2450   11.7560 O.3       1 PSM        -0.3878
     22 N4         36.6300    5.0550   11.6950 N.am      1 PSM        -0.2273
     23 C5         36.9700    6.0480   10.6700 C.3       1 PSM         0.1514
     24 C3         38.4400    8.2660   10.4070 C.3       1 PSM        -0.0350
     25 S1         36.3490    3.4150   11.2040 S.o2      1 PSM         0.0413
     26 O4         36.2250    2.6990   12.4130 O.2       1 PSM        -0.1554
     27 O3         37.4440    3.1100   10.3350 O.2       1 PSM        -0.1554
     28 C9         34.8370    3.3420   10.3280 C.3       1 PSM         0.0843
     29 C8         33.7030    3.3120   11.3070 C.3       1 PSM        -0.0347
     30 N2         29.5190    7.4510   15.9080 N.pl3     1 PSM        -0.2729
     31 C6         34.9610   11.6560    8.2330 C.3       1 PSM        -0.0181
     32 C7         32.3880    3.1950   10.5600 C.3       1 PSM        -0.0637
     33 H1         36.3730    6.8170    8.3004 H         1 PSM         0.1883
     34 H2         34.5966    8.8596    9.1983 H         1 PSM         0.0800
     35 H3         33.9756    9.2485    6.8863 H         1 PSM         0.0320
     36 H4         34.8683    7.7687    6.3966 H         1 PSM         0.0320
     37 H5         36.1150    9.9907    6.1191 H         1 PSM         0.0378
     38 H6         36.9747    8.6985    7.0234 H         1 PSM         0.0378
     39 H7         32.4803    9.1375    9.2016 H         1 PSM         0.1878
     40 H8         30.8873    6.6787    8.8672 H         1 PSM         0.0683
     41 H9         30.2468    8.3422    9.0891 H         1 PSM         0.0683
     42 H10        32.3845    5.9024   11.0486 H         1 PSM         0.0557
     43 H11        31.9960    5.4175   13.4403 H         1 PSM         0.0599
     44 H12        28.7451    8.2759   13.4905 H         1 PSM         0.0599
     45 H13        29.0515    8.6463   11.0471 H         1 PSM         0.0557
     46 H14        30.7060    5.4846   16.7449 H         1 PSM         0.3180
     47 H15        31.3722    4.9470   15.1797 H         1 PSM         0.3180
     48 H16        37.5927    7.4266   12.1392 H         1 PSM         0.0635
     49 H17        39.8262    6.8418   12.0998 H         1 PSM         0.2101
     50 H18        36.5616    5.3182   12.6573 H         1 PSM         0.1703
     51 H19        37.3678    5.5299    9.7850 H         1 PSM         0.0780
     52 H20        37.5214    8.7647   10.0643 H         1 PSM         0.0257
     53 H21        39.0413    7.9664    9.5360 H         1 PSM         0.0257
     54 H22        39.0215    8.9586   11.0332 H         1 PSM         0.0257
     55 H23        34.8134    2.4328    9.7094 H         1 PSM         0.0518
     56 H24        34.7425    4.2274    9.6822 H         1 PSM         0.0518
     57 H25        33.7062    4.2389   11.8993 H         1 PSM         0.0279
     58 H26        33.8211    2.4480   11.9775 H         1 PSM         0.0279
     59 H27        29.0443    8.2691   15.5003 H         1 PSM         0.3180
     60 H28        29.4384    7.2585   16.9166 H         1 PSM         0.3180
     61 H29        34.9688   12.4312    9.0133 H         1 PSM         0.0340
     62 H30        34.0368   11.0649    8.3127 H         1 PSM         0.0340
     63 H31        35.0074   12.1323    7.2426 H         1 PSM         0.0340
     64 H32        31.5575    3.1732   11.2809 H         1 PSM         0.0230
     65 H33        32.3839    2.2680    9.9678 H         1 PSM         0.0230
     66 H34        32.2690    4.0589    9.8896 H         1 PSM         0.0230
@<TRIPOS>BOND
     1    1    2 2  
     2    1    3 am 
     3   23    1 1  
     4    3    4 1  
     5    4    5 1  
     6    4    7 1  
     7    5    6 1  
     8    6   19 1  
     9    7    8 2  
    10    7    9 am 
    11    9   10 1  
    12   10   16 1  
    13   11   12 ar 
    14   16   11 ar 
    15   12   13 ar 
    16   14   13 ar 
    17   13   17 1  
    18   15   14 ar 
    19   16   15 ar 
    20   17   18 ar 
    21   17   30 ar 
    22   19   31 1  
    23   20   21 1  
    24   20   23 1  
    25   20   24 1  
    26   23   22 1  
    27   22   25 am 
    28   25   26 2  
    29   25   27 2  
    30   25   28 1  
    31   28   29 1  
    32   29   32 1  
    33    3   33 1  
    34    4   34 1  
    35    5   35 1  
    36    5   36 1  
    37    6   37 1  
    38    6   38 1  
    39    9   39 1  
    40   10   40 1  
    41   10   41 1  
    42   11   42 1  
    43   12   43 1  
    44   14   44 1  
    45   15   45 1  
    46   18   46 1  
    47   18   47 1  
    48   20   48 1  
    49   21   49 1  
    50   22   50 1  
    51   23   51 1  
    52   24   52 1  
    53   24   53 1  
    54   24   54 1  
    55   28   55 1  
    56   28   56 1  
    57   29   57 1  
    58   29   58 1  
    59   30   59 1  
    60   30   60 1  
    61   31   61 1  
    62   31   62 1  
    63   31   63 1  
    64   32   64 1  
    65   32   65 1  
    66   32   66 1  
@<TRIPOS>SUBSTRUCTURE
     1 PSM         1

