### 
### Created by X-TOOL on Mon Sep 10 21:12:52 2018
### 

@<TRIPOS>MOLECULE
1ws1_ligand
   60    60     1     0     0
SMALL
GAST_HUCK


@<TRIPOS>ATOM
      1 C5         -4.9730   44.3770   55.2300 C.3       1 BB2         0.0585
      2 C3         -4.4200   44.0440   53.8400 C.2       1 BB2         0.2013
      3 O4         -4.4140   44.9500   53.0380 O.2       1 BB2        -0.3968
      4 N1         -4.0010   42.8200   53.5250 N.am      1 BB2        -0.1641
      5 O2         -3.5700   42.5550   52.3880 O.3       1 BB2        -0.2717
      6 C6         -6.5650   44.3290   55.0840 C.3       1 BB2         0.0654
      7 C12        -7.3070   44.9290   56.2760 C.2       1 BB2         0.1836
      8 O13        -7.0000   44.6240   57.4030 O.2       1 BB2        -0.3965
      9 C7         -7.0070   42.8300   54.9920 C.3       1 BB2        -0.0311
     10 C8         -8.5320   42.9080   54.7410 C.3       1 BB2        -0.0506
     11 C9         -9.1510   41.6190   54.5510 C.3       1 BB2        -0.0532
     12 C10       -10.5730   41.7530   54.0230 C.3       1 BB2        -0.0559
     13 C11       -11.5180   42.3420   55.0060 C.3       1 BB2        -0.0653
     14 N14        -8.2950   45.8170   55.9570 N.am      1 BB2        -0.2650
     15 C15        -9.1130   46.5460   56.9020 C.3       1 BB2         0.1333
     16 C16        -8.8170   48.0510   56.9830 C.3       1 BB2        -0.0062
     17 C18        -8.7580   48.6800   55.6450 C.3       1 BB2        -0.0584
     18 C17        -7.4890   48.2190   57.6940 C.3       1 BB2        -0.0584
     19 C19       -10.5900   46.2420   56.5180 C.2       1 BB2         0.2061
     20 O20       -10.8830   46.1010   55.3110 O.2       1 BB2        -0.3942
     21 N21       -11.5180   46.1150   57.4910 N.am      1 BB2        -0.2556
     22 C22       -12.9250   45.8040   57.1800 C.3       1 BB2         0.0972
     23 C23       -11.3130   46.2470   58.9630 C.3       1 BB2         0.0362
     24 C24       -12.6880   46.0030   59.5370 C.3       1 BB2        -0.0288
     25 C25       -13.4500   45.2600   58.4990 C.3       1 BB2        -0.0159
     26 C26       -13.7070   47.0270   56.7600 C.2       1 BB2         0.0603
     27 O27       -13.5340   47.3590   55.5740 O.co2     1 BB2        -0.5666
     28 O1        -14.4680   47.6556   57.5432 O.co2     1 BB2        -0.5666
     29 H1         -4.6465   45.3797   55.5428 H         1 BB2         0.0529
     30 H2         -4.6327   43.6342   55.9665 H         1 BB2         0.0529
     31 H3         -4.0333   42.0985   54.2166 H         1 BB2         0.2216
     32 H4         -2.8135   43.0989   52.2026 H         1 BB2         0.2490
     33 H5         -6.8541   44.8680   54.1697 H         1 BB2         0.0563
     34 H6         -6.7914   42.2998   55.9313 H         1 BB2         0.0294
     35 H7         -6.4986   42.3222   54.1592 H         1 BB2         0.0294
     36 H8         -8.7059   43.5138   53.8395 H         1 BB2         0.0267
     37 H9         -9.0028   43.3959   55.6072 H         1 BB2         0.0267
     38 H10        -9.1765   41.0895   55.5148 H         1 BB2         0.0265
     39 H11        -8.5556   41.0397   53.8300 H         1 BB2         0.0265
     40 H12       -10.9373   40.7526   53.7465 H         1 BB2         0.0263
     41 H13       -10.5537   42.3958   53.1306 H         1 BB2         0.0263
     42 H14       -12.5201   42.4077   54.5572 H         1 BB2         0.0230
     43 H15       -11.1751   43.3489   55.2864 H         1 BB2         0.0230
     44 H16       -11.5587   41.7056   55.9023 H         1 BB2         0.0230
     45 H17        -8.4680   45.9772   54.9852 H         1 BB2         0.1883
     46 H18        -8.9235   46.1330   57.9037 H         1 BB2         0.0802
     47 H19        -9.6099   48.5419   57.5663 H         1 BB2         0.0343
     48 H20        -8.5444   49.7536   55.7537 H         1 BB2         0.0234
     49 H21        -9.7236   48.5481   55.1349 H         1 BB2         0.0234
     50 H22        -7.9621   48.2061   55.0518 H         1 BB2         0.0234
     51 H23        -7.5426   47.7486   58.6869 H         1 BB2         0.0234
     52 H24        -7.2667   49.2903   57.8074 H         1 BB2         0.0234
     53 H25        -6.6939   47.7400   57.1038 H         1 BB2         0.0234
     54 H26       -12.9886   45.0451   56.3863 H         1 BB2         0.0728
     55 H27       -10.9531   47.2540   59.2206 H         1 BB2         0.0524
     56 H28       -10.5963   45.4968   59.3284 H         1 BB2         0.0524
     57 H29       -13.1826   46.9599   59.7600 H         1 BB2         0.0286
     58 H30       -12.6155   45.4045   60.4571 H         1 BB2         0.0286
     59 H31       -13.2609   44.1792   58.5768 H         1 BB2         0.0306
     60 H32       -14.5288   45.4515   58.5969 H         1 BB2         0.0306
@<TRIPOS>BOND
     1    1    2 1  
     2    1    6 1  
     3    2    3 2  
     4    2    4 am 
     5    4    5 1  
     6    6    7 1  
     7    6    9 1  
     8    7    8 2  
     9    7   14 am 
    10    9   10 1  
    11   10   11 1  
    12   11   12 1  
    13   12   13 1  
    14   14   15 1  
    15   15   16 1  
    16   15   19 1  
    17   16   17 1  
    18   16   18 1  
    19   19   20 2  
    20   19   21 am 
    21   21   22 1  
    22   21   23 1  
    23   22   25 1  
    24   22   26 1  
    25   23   24 1  
    26   24   25 1  
    27   26   27 ar 
    28   26   28 ar 
    29    1   29 1  
    30    1   30 1  
    31    4   31 1  
    32    5   32 1  
    33    6   33 1  
    34    9   34 1  
    35    9   35 1  
    36   10   36 1  
    37   10   37 1  
    38   11   38 1  
    39   11   39 1  
    40   12   40 1  
    41   12   41 1  
    42   13   42 1  
    43   13   43 1  
    44   13   44 1  
    45   14   45 1  
    46   15   46 1  
    47   16   47 1  
    48   17   48 1  
    49   17   49 1  
    50   17   50 1  
    51   18   51 1  
    52   18   52 1  
    53   18   53 1  
    54   22   54 1  
    55   23   55 1  
    56   23   56 1  
    57   24   57 1  
    58   24   58 1  
    59   25   59 1  
    60   25   60 1  
@<TRIPOS>SUBSTRUCTURE
     1 BB2         1

