### 
### Created by X-TOOL on Mon Sep 10 21:12:52 2018
### 

@<TRIPOS>MOLECULE
1ws4_ligand
   27    27     1     0     0
SMALL
GAST_HUCK


@<TRIPOS>ATOM
      1 C1         51.0840   54.1280   66.3810 C.3       1 GYP         0.1876
      2 C2         51.6640   55.4150   65.7840 C.3       1 GYP         0.1341
      3 C3         51.6710   56.5720   66.7820 C.3       1 GYP         0.1141
      4 C4         50.2330   56.8080   67.2470 C.3       1 GYP         0.1119
      5 C5         49.7010   55.5160   67.9130 C.3       1 GYP         0.1130
      6 C6         48.2610   55.6660   68.4270 C.3       1 GYP         0.0730
      7 C7         51.4270   52.3010   67.9180 C.3       1 GYP         0.0395
      8 O1         51.9540   53.5340   67.3700 O.3       1 GYP        -0.3520
      9 O2         52.9930   55.1490   65.3030 O.3       1 GYP        -0.3841
     10 O3         52.2070   57.7500   66.1450 O.3       1 GYP        -0.3864
     11 O4         50.2100   57.8880   68.1810 O.3       1 GYP        -0.3865
     12 O5         49.7480   54.4140   66.9400 O.3       1 GYP        -0.3405
     13 O6         47.3570   55.9400   67.3600 O.3       1 GYP        -0.3924
     14 H1         50.9655   53.3997   65.5652 H         1 GYP         0.0937
     15 H2         51.0361   55.7105   64.9305 H         1 GYP         0.0671
     16 H3         52.2978   56.3124   67.6479 H         1 GYP         0.0648
     17 H4         49.6021   57.0604   66.3820 H         1 GYP         0.0647
     18 H5         50.3515   55.2719   68.7658 H         1 GYP         0.0647
     19 H6         48.2230   56.4937   69.1504 H         1 GYP         0.0584
     20 H7         47.9581   54.7318   68.9224 H         1 GYP         0.0584
     21 H8         52.1314   51.8996   68.6615 H         1 GYP         0.0525
     22 H9         51.2913   51.5685   67.1087 H         1 GYP         0.0525
     23 H10        50.4582   52.4985   68.4001 H         1 GYP         0.0525
     24 H11        53.3337   55.9242   64.8723 H         1 GYP         0.2101
     25 H12        52.1999   58.4729   66.7613 H         1 GYP         0.2100
     26 H13        49.3180   58.0327   68.4742 H         1 GYP         0.2100
     27 H14        47.6112   56.7484   66.9308 H         1 GYP         0.2095
@<TRIPOS>BOND
     1    1    2 1  
     2    1    8 1  
     3    1   12 1  
     4    2    3 1  
     5    2    9 1  
     6    3    4 1  
     7    3   10 1  
     8    4    5 1  
     9    4   11 1  
    10    5    6 1  
    11    5   12 1  
    12    6   13 1  
    13    8    7 1  
    14    1   14 1  
    15    2   15 1  
    16    3   16 1  
    17    4   17 1  
    18    5   18 1  
    19    6   19 1  
    20    6   20 1  
    21    7   21 1  
    22    7   22 1  
    23    7   23 1  
    24    9   24 1  
    25   10   25 1  
    26   11   26 1  
    27   13   27 1  
@<TRIPOS>SUBSTRUCTURE
     1 GYP         1

