### 
### Created by X-TOOL on Sun Sep  9 21:50:14 2018
### 

@<TRIPOS>MOLECULE
1ws5_ligand
   27    27     1     0     0
SMALL
GAST_HUCK


@<TRIPOS>ATOM
      1 C1         51.3820   54.2590   66.5040 C.3       1 NON         0.1876
      2 C2         51.9890   55.6140   66.0330 C.3       1 NON         0.1341
      3 C3         51.8740   56.6800   67.1330 C.3       1 NON         0.1141
      4 C4         50.3980   56.8450   67.5380 C.3       1 NON         0.1119
      5 C5         49.8640   55.4890   68.0340 C.3       1 NON         0.1130
      6 C6         48.3930   55.5780   68.4330 C.3       1 NON         0.0730
      7 C7         52.5500   52.3250   67.9740 C.3       1 NON         0.0395
      8 O1         52.2880   53.6050   67.3030 O.3       1 NON        -0.3520
      9 O2         51.3600   56.0890   64.8480 O.3       1 NON        -0.3841
     10 O3         52.4190   57.9070   66.6670 O.3       1 NON        -0.3864
     11 O4         50.2800   57.8230   68.5520 O.3       1 NON        -0.3865
     12 O5         49.9950   54.5000   66.9670 O.3       1 NON        -0.3405
     13 O6         47.5410   55.8960   67.3390 O.3       1 NON        -0.3924
     14 H1         51.2783   53.6202   65.6145 H         1 NON         0.0937
     15 H2         53.0551   55.4513   65.8164 H         1 NON         0.0671
     16 H3         52.4468   56.3511   68.0126 H         1 NON         0.0648
     17 H4         49.8145   57.1655   66.6624 H         1 NON         0.0647
     18 H5         50.4544   55.1702   68.9056 H         1 NON         0.0647
     19 H6         48.2842   56.3581   69.2009 H         1 NON         0.0584
     20 H7         48.0828   54.6081   68.8490 H         1 NON         0.0584
     21 H8         53.5059   52.3836   68.5151 H         1 NON         0.0525
     22 H9         52.6018   51.5218   67.2242 H         1 NON         0.0525
     23 H10        51.7386   52.1110   68.6852 H         1 NON         0.0525
     24 H11        51.7873   56.8880   64.5625 H         1 NON         0.2101
     25 H12        52.3642   58.5585   67.3561 H         1 NON         0.2100
     26 H13        49.3661   57.9194   68.7926 H         1 NON         0.2100
     27 H14        46.6415   55.9386   67.6416 H         1 NON         0.2095
@<TRIPOS>BOND
     1    1    2 1  
     2    1    8 1  
     3    1   12 1  
     4    2    3 1  
     5    2    9 1  
     6    3    4 1  
     7    3   10 1  
     8    4    5 1  
     9    4   11 1  
    10    5    6 1  
    11    5   12 1  
    12    6   13 1  
    13    8    7 1  
    14    1   14 1  
    15    2   15 1  
    16    3   16 1  
    17    4   17 1  
    18    5   18 1  
    19    6   19 1  
    20    6   20 1  
    21    7   21 1  
    22    7   22 1  
    23    7   23 1  
    24    9   24 1  
    25   10   25 1  
    26   11   26 1  
    27   13   27 1  
@<TRIPOS>SUBSTRUCTURE
     1 NON         1

