### 
### Created by X-TOOL on Mon Sep 10 21:12:53 2018
### 

@<TRIPOS>MOLECULE
1wss_ligand
   79    80     1     0     0
SMALL
GAST_HUCK


@<TRIPOS>ATOM
      1 C15        35.6350    6.9440    9.8530 C.2       1 3CB         0.2003
      2 O1         34.8950    7.3560   10.7500 O.2       1 3CB        -0.3948
      3 N17        35.4600    7.2150    8.5260 N.am      1 3CB        -0.2641
      4 C18        34.3770    8.1620    8.2570 C.3       1 3CB         0.1307
      5 C19        34.3420    8.7070    6.8330 C.3       1 3CB        -0.0097
      6 C20        35.7170    9.1260    6.3340 C.3       1 3CB         0.0231
      7 C28        33.0670    7.4660    8.6220 C.2       1 3CB         0.2035
      8 O30        32.9150    6.2610    8.4110 O.2       1 3CB        -0.3944
      9 N31        32.1530    8.2830    9.1740 N.am      1 3CB        -0.2737
     10 C32        30.7850    7.8120    9.3680 C.3       1 3CB         0.0645
     11 C16        31.2230    6.5300   11.4540 C.ar      1 3CB        -0.0584
     12 C17        31.0710    6.3040   12.8190 C.ar      1 3CB        -0.0633
     13 C22        30.1680    7.0620   13.5950 C.ar      1 3CB         0.0188
     14 C23        29.3760    8.0410   12.9440 C.ar      1 3CB        -0.0633
     15 C24        29.5480    8.2900   11.5610 C.ar      1 3CB        -0.0584
     16 C25        30.4880    7.5400   10.8150 C.ar      1 3CB        -0.0210
     17 C26        30.0880    6.8150   15.0720 C.cat     1 3CB         0.2318
     18 N1         30.7370    5.7890   15.6480 N.pl3     1 3CB        -0.2729
     19 C2         35.7020    9.6530    4.9350 C.cat     1 3CB         0.2046
     20 N5         35.5980    8.8570    3.8740 N.pl3     1 3CB        -0.2762
     21 N3         35.8490   10.9690    4.7870 N.pl3     1 3CB        -0.2762
     22 C1         37.9540    7.0460   10.7650 C.3       1 3CB        -0.0072
     23 C4         39.1810    6.3040   11.2910 C.3       1 3CB        -0.0495
     24 N4         36.5420    5.0920   11.2670 N.am      1 3CB        -0.2278
     25 C5         36.8590    6.0720   10.2120 C.3       1 3CB         0.1287
     26 C3         38.3460    8.1880    9.7960 C.3       1 3CB        -0.0586
     27 S1         35.6830    3.6380   10.8750 S.o2      1 3CB         0.0511
     28 O4         35.8400    2.8040   12.0080 O.2       1 3CB        -0.1532
     29 O3         36.2380    3.2460    9.6320 O.2       1 3CB        -0.1532
     30 C9         33.9860    4.0530   10.6240 C.3       1 3CB         0.1186
     31 C6         39.8250    5.4620   10.1910 C.3       1 3CB        -0.0648
     32 C8         33.1190    2.9000   10.2910 C.ar      1 3CB        -0.0169
     33 C7         33.1420    2.3650    8.9960 C.ar      1 3CB        -0.0446
     34 C12        32.3720    1.2360    8.6800 C.ar      1 3CB         0.0035
     35 C10        31.5960    0.6220    9.6860 C.ar      1 3CB        -0.0545
     36 C11        31.5630    1.1520   10.9870 C.ar      1 3CB        -0.0649
     37 C13        32.3150    2.3060   11.2810 C.ar      1 3CB        -0.0561
     38 N2         29.3430    7.5940   15.8580 N.pl3     1 3CB        -0.2729
     39 C14        32.3730    0.7070    7.3180 C.2       1 3CB         0.0613
     40 O2         31.7120   -0.3020    7.0750 O.co2     1 3CB        -0.5607
     41 O5         33.0290    1.2970    6.4610 O.co2     1 3CB        -0.5607
     42 H1         36.0194    6.8049    7.8057 H         1 3CB         0.1883
     43 H2         34.5111    9.0242    8.9268 H         1 3CB         0.0800
     44 H3         33.6758    9.5819    6.8067 H         1 3CB         0.0310
     45 H4         33.9480    7.9259    6.1662 H         1 3CB         0.0310
     46 H5         36.3834    8.2516    6.3707 H         1 3CB         0.0284
     47 H6         36.1056    9.9114    6.9989 H         1 3CB         0.0284
     48 H7         32.4092    9.2093    9.4505 H         1 3CB         0.1878
     49 H8         30.6435    6.8837    8.7951 H         1 3CB         0.0683
     50 H9         30.0886    8.5798    9.0000 H         1 3CB         0.0683
     51 H10        31.9136    5.9219   10.8810 H         1 3CB         0.0557
     52 H11        31.6591    5.5287   13.2966 H         1 3CB         0.0599
     53 H12        28.6370    8.6002   13.5064 H         1 3CB         0.0599
     54 H13        28.9582    9.0570   11.0723 H         1 3CB         0.0557
     55 H14        30.6662    5.6405   16.6648 H         1 3CB         0.3180
     56 H15        31.3053    5.1510   15.0727 H         1 3CB         0.3180
     57 H16        35.5914    9.2603    2.9263 H         1 3CB         0.3177
     58 H17        35.5241    7.8375    4.0003 H         1 3CB         0.3177
     59 H18        35.8461   11.3848    3.8447 H         1 3CB         0.3177
     60 H19        35.9656   11.5705    5.6149 H         1 3CB         0.3177
     61 H20        37.4982    7.5385   11.6366 H         1 3CB         0.0341
     62 H21        38.8759    5.6444   12.1167 H         1 3CB         0.0267
     63 H22        39.9143    7.0368   11.6588 H         1 3CB         0.0267
     64 H23        36.8231    5.2664   12.2107 H         1 3CB         0.1704
     65 H24        37.2219    5.5469    9.3161 H         1 3CB         0.0756
     66 H25        39.1159    8.8185   10.2647 H         1 3CB         0.0234
     67 H26        37.4591    8.7986    9.5710 H         1 3CB         0.0234
     68 H27        38.7416    7.7584    8.8638 H         1 3CB         0.0234
     69 H28        33.9271    4.7778    9.7986 H         1 3CB         0.0682
     70 H29        33.6045    4.5156   11.5462 H         1 3CB         0.0682
     71 H30        40.7042    4.9397   10.5963 H         1 3CB         0.0230
     72 H31        40.1365    6.1162    9.3634 H         1 3CB         0.0230
     73 H32        39.0982    4.7238    9.8213 H         1 3CB         0.0230
     74 H33        33.7589    2.8267    8.2335 H         1 3CB         0.0590
     75 H34        31.0202   -0.2664    9.4531 H         1 3CB         0.0593
     76 H35        30.9649    0.6775   11.7565 H         1 3CB         0.0606
     77 H36        32.2741    2.7383   12.2742 H         1 3CB         0.0578
     78 H37        28.8296    8.3910   15.4555 H         1 3CB         0.3180
     79 H38        29.2812    7.3984   16.8674 H         1 3CB         0.3180
@<TRIPOS>BOND
     1    1    2 2  
     2    1    3 am 
     3   25    1 1  
     4    3    4 1  
     5    4    5 1  
     6    4    7 1  
     7    5    6 1  
     8    6   19 1  
     9    7    8 2  
    10    7    9 am 
    11    9   10 1  
    12   10   16 1  
    13   11   12 ar 
    14   16   11 ar 
    15   12   13 ar 
    16   14   13 ar 
    17   13   17 1  
    18   15   14 ar 
    19   16   15 ar 
    20   17   18 ar 
    21   17   38 ar 
    22   19   20 ar 
    23   19   21 ar 
    24   22   23 1  
    25   22   25 1  
    26   22   26 1  
    27   23   31 1  
    28   25   24 1  
    29   24   27 am 
    30   27   28 2  
    31   27   29 2  
    32   27   30 1  
    33   30   32 1  
    34   32   33 ar 
    35   32   37 ar 
    36   33   34 ar 
    37   34   35 ar 
    38   34   39 1  
    39   35   36 ar 
    40   36   37 ar 
    41   39   40 ar 
    42   39   41 ar 
    43    3   42 1  
    44    4   43 1  
    45    5   44 1  
    46    5   45 1  
    47    6   46 1  
    48    6   47 1  
    49    9   48 1  
    50   10   49 1  
    51   10   50 1  
    52   11   51 1  
    53   12   52 1  
    54   14   53 1  
    55   15   54 1  
    56   18   55 1  
    57   18   56 1  
    58   20   57 1  
    59   20   58 1  
    60   21   59 1  
    61   21   60 1  
    62   22   61 1  
    63   23   62 1  
    64   23   63 1  
    65   24   64 1  
    66   25   65 1  
    67   26   66 1  
    68   26   67 1  
    69   26   68 1  
    70   30   69 1  
    71   30   70 1  
    72   31   71 1  
    73   31   72 1  
    74   31   73 1  
    75   33   74 1  
    76   35   75 1  
    77   36   76 1  
    78   37   77 1  
    79   38   78 1  
    80   38   79 1  
@<TRIPOS>SUBSTRUCTURE
     1 3CB         1

