### 
### Created by X-TOOL on Mon Sep 10 21:12:52 2018
### 

@<TRIPOS>MOLECULE
1wtg_ligand
   79    81     1     0     0
SMALL
GAST_HUCK


@<TRIPOS>ATOM
      1 C15        35.7990    7.0160   10.2910 C.2       1 3BP         0.2021
      2 O1         34.8940    7.2350   11.0940 O.2       1 3BP        -0.3947
      3 N17        35.8450    7.4860    9.0220 N.am      1 3BP        -0.2638
      4 C18        34.7430    8.2670    8.5040 C.3       1 3BP         0.1330
      5 C19        34.8870    8.5250    7.0170 C.3       1 3BP         0.0045
      6 C20        36.1800    9.2600    6.6340 C.3       1 3BP         0.0412
      7 C28        33.4260    7.5020    8.7810 C.2       1 3BP         0.2036
      8 O30        33.3140    6.2890    8.6010 O.2       1 3BP        -0.3944
      9 N31        32.4510    8.2970    9.2420 N.am      1 3BP        -0.2737
     10 C32        31.1870    7.6600    9.4950 C.3       1 3BP         0.0645
     11 C16        31.7910    6.5070   11.6580 C.ar      1 3BP        -0.0584
     12 C17        31.5360    6.2620   13.0220 C.ar      1 3BP        -0.0633
     13 C22        30.4890    6.9410   13.6950 C.ar      1 3BP         0.0188
     14 C23        29.6560    7.7930   12.9620 C.ar      1 3BP        -0.0633
     15 C24        29.8920    8.0170   11.6050 C.ar      1 3BP        -0.0584
     16 C25        30.9620    7.3840   10.9480 C.ar      1 3BP        -0.0210
     17 C26        30.2710    6.7680   15.1330 C.cat     1 3BP         0.2318
     18 N1         30.8220    5.7580   15.7920 N.pl3     1 3BP        -0.2729
     19 C2         36.0630    9.5590    5.1570 C.2       1 3BP         0.1737
     20 O2         35.8960    8.6690    4.3290 O.2       1 3BP        -0.3973
     21 N3         36.0580   10.8540    4.8820 N.am      1 3BP        -0.3009
     22 C1         38.0010    7.0940   11.3860 C.3       1 3BP         0.0184
     23 N4         36.5400    5.0990   11.5910 N.am      1 3BP        -0.2278
     24 C5         37.0110    6.1530   10.7090 C.3       1 3BP         0.1356
     25 S1         36.3720    3.5130   10.9500 S.o2      1 3BP         0.0411
     26 O4         35.7390    3.7160    9.6870 O.2       1 3BP        -0.1554
     27 O3         35.7030    2.8060   11.9870 O.2       1 3BP        -0.1554
     28 C9         37.9810    2.8520   10.7010 C.3       1 3BP         0.0818
     29 C8         38.5800    2.5600   12.0900 C.3       1 3BP        -0.0440
     30 N2         29.4980    7.5940   15.8220 N.pl3     1 3BP        -0.2729
     31 C11        40.2550    5.9640   11.1010 C.ar      1 3BP        -0.0587
     32 C7         39.1800    6.3580   11.9300 C.ar      1 3BP        -0.0379
     33 C3         39.2760    6.0170   13.2960 C.ar      1 3BP        -0.0587
     34 C4         40.3770    5.2820   13.7960 C.ar      1 3BP        -0.0600
     35 C13        41.4320    4.8550   12.9650 C.ar      1 3BP        -0.0242
     36 C6         41.3500    5.2350   11.6160 C.ar      1 3BP        -0.0600
     37 C12        44.9690    3.6190   13.7640 C.ar      1 3BP        -0.0622
     38 C10        43.8860    4.2960   13.1440 C.ar      1 3BP        -0.0557
     39 C21        42.5510    4.0440   13.4990 C.ar      1 3BP        -0.0221
     40 C27        42.3410    3.0250   14.4510 C.ar      1 3BP        -0.0557
     41 C14        43.4150    2.3380   15.0700 C.ar      1 3BP        -0.0622
     42 C29        44.7530    2.6470   14.7600 C.ar      1 3BP        -0.0627
     43 H1         36.6385    7.2938    8.4445 H         1 3BP         0.1883
     44 H2         34.7165    9.2346    9.0265 H         1 3BP         0.0801
     45 H3         34.0322    9.1336    6.6869 H         1 3BP         0.0337
     46 H4         34.8714    7.5571    6.4947 H         1 3BP         0.0337
     47 H5         37.0548    8.6218    6.8272 H         1 3BP         0.0504
     48 H6         36.2737   10.1940    7.2074 H         1 3BP         0.0504
     49 H7         32.5937    9.2740    9.4005 H         1 3BP         0.1878
     50 H8         31.1569    6.7069    8.9467 H         1 3BP         0.0683
     51 H9         30.3827    8.3171    9.1327 H         1 3BP         0.0683
     52 H10        32.6229    6.0201   11.1620 H         1 3BP         0.0557
     53 H11        32.1464    5.5473   13.5621 H         1 3BP         0.0599
     54 H12        28.8217    8.2824   13.4514 H         1 3BP         0.0599
     55 H13        29.2434    8.6862   11.0514 H         1 3BP         0.0557
     56 H14        30.6577    5.6521   16.8033 H         1 3BP         0.3180
     57 H15        31.4144    5.0793   15.2927 H         1 3BP         0.3180
     58 H16        35.9845   11.1635    3.9340 H         1 3BP         0.1814
     59 H17        36.1277   11.5226    5.6223 H         1 3BP         0.1814
     60 H18        37.4922    7.6121   12.2122 H         1 3BP         0.0473
     61 H19        38.3508    7.8328   10.6499 H         1 3BP         0.0473
     62 H20        36.3191    5.2914   12.5471 H         1 3BP         0.1704
     63 H21        37.4821    5.6992    9.8246 H         1 3BP         0.0777
     64 H22        38.6083    3.5809   10.1669 H         1 3BP         0.0515
     65 H23        37.9192    1.9228   10.1155 H         1 3BP         0.0515
     66 H24        39.5913    2.1433   11.9729 H         1 3BP         0.0246
     67 H25        37.9437    1.8350   12.6187 H         1 3BP         0.0246
     68 H26        38.6328    3.4931   12.6701 H         1 3BP         0.0246
     69 H27        29.0492    8.3926   15.3511 H         1 3BP         0.3180
     70 H28        29.3458    7.4377   16.8286 H         1 3BP         0.3180
     71 H29        40.2388    6.2264   10.0494 H         1 3BP         0.0560
     72 H30        38.4901    6.3245   13.9763 H         1 3BP         0.0560
     73 H31        40.4099    5.0397   14.8521 H         1 3BP         0.0609
     74 H32        42.1558    4.9591   10.9455 H         1 3BP         0.0609
     75 H33        45.9836    3.8552   13.4644 H         1 3BP         0.0615
     76 H34        44.0959    5.0292   12.3737 H         1 3BP         0.0615
     77 H35        41.3248    2.7584   14.7181 H         1 3BP         0.0615
     78 H36        43.2024    1.5607   15.7951 H         1 3BP         0.0615
     79 H37        45.5791    2.1592   15.2647 H         1 3BP         0.0610
@<TRIPOS>BOND
     1    1    2 2  
     2    1    3 am 
     3   24    1 1  
     4    3    4 1  
     5    4    5 1  
     6    4    7 1  
     7    5    6 1  
     8    6   19 1  
     9    7    8 2  
    10    7    9 am 
    11    9   10 1  
    12   10   16 1  
    13   11   12 ar 
    14   16   11 ar 
    15   12   13 ar 
    16   14   13 ar 
    17   13   17 1  
    18   15   14 ar 
    19   16   15 ar 
    20   17   18 ar 
    21   17   30 ar 
    22   19   20 2  
    23   19   21 am 
    24   22   24 1  
    25   32   22 1  
    26   24   23 1  
    27   23   25 am 
    28   25   26 2  
    29   25   27 2  
    30   25   28 1  
    31   28   29 1  
    32   31   32 ar 
    33   36   31 ar 
    34   33   32 ar 
    35   34   33 ar 
    36   35   34 ar 
    37   35   36 ar 
    38   39   35 1  
    39   38   37 ar 
    40   37   42 ar 
    41   38   39 ar 
    42   39   40 ar 
    43   40   41 ar 
    44   41   42 ar 
    45    3   43 1  
    46    4   44 1  
    47    5   45 1  
    48    5   46 1  
    49    6   47 1  
    50    6   48 1  
    51    9   49 1  
    52   10   50 1  
    53   10   51 1  
    54   11   52 1  
    55   12   53 1  
    56   14   54 1  
    57   15   55 1  
    58   18   56 1  
    59   18   57 1  
    60   21   58 1  
    61   21   59 1  
    62   22   60 1  
    63   22   61 1  
    64   23   62 1  
    65   24   63 1  
    66   28   64 1  
    67   28   65 1  
    68   29   66 1  
    69   29   67 1  
    70   29   68 1  
    71   30   69 1  
    72   30   70 1  
    73   31   71 1  
    74   33   72 1  
    75   34   73 1  
    76   36   74 1  
    77   37   75 1  
    78   38   76 1  
    79   40   77 1  
    80   41   78 1  
    81   42   79 1  
@<TRIPOS>SUBSTRUCTURE
     1 3BP         1

