### 
### Created by X-TOOL on Mon Sep 10 21:12:52 2018
### 

@<TRIPOS>MOLECULE
1wu1_ligand
   52    56     1     0     0
SMALL
GAST_HUCK


@<TRIPOS>ATOM
      1 C18         4.2870    6.3310   22.7660 C.3       1 D91         0.0510
      2 C19         5.4740    6.7940   23.6290 C.3       1 D91         0.0502
      3 N17         5.0490    5.8160   21.6370 N.am      1 D91        -0.2642
      4 C16         5.6100    6.7900   20.7140 C.3       1 D91         0.0510
      5 C15         6.7370    7.4030   21.5510 C.3       1 D91         0.0502
      6 N12         6.2340    7.8050   22.8650 N.am      1 D91        -0.2276
      7 S11         6.8090    9.2130   23.7050 S.o2      1 D91         0.0940
      8 O13         7.1860   10.2270   22.7540 O.2       1 D91        -0.1471
      9 O14         5.8700    9.4610   24.7800 O.2       1 D91        -0.1471
     10 C8          8.2440    8.6070   24.5580 C.2       1 D91         0.1943
     11 C9          9.5430    8.9630   23.9620 C.2       1 D91        -0.0360
     12 C4         10.4300    8.3590   25.0230 C.ar      1 D91        -0.0252
     13 C5         11.7470    8.2340   25.2050 C.ar      1 D91        -0.0612
     14 C6         12.2040    7.5620   26.3340 C.ar      1 D91         0.0226
     15 CL         13.9270    7.4680   26.4230 Cl        1 D91        -0.0819
     16 C3          9.5710    7.7540   25.9980 C.ar      1 D91         0.0653
     17 N7          8.3100    7.9340   25.6910 N.pl3     1 D91        -0.2572
     18 C2         10.0170    7.1340   27.1320 C.ar      1 D91        -0.0426
     19 C1         11.3760    7.0110   27.3310 C.ar      1 D91        -0.0625
     20 C20         5.3100    4.4360   21.6090 C.2       1 D91         0.2515
     21 O22         4.8860    3.7950   22.5670 O.2       1 D91        -0.3706
     22 C21         6.1090    3.7070   20.6210 C.ar      1 D91         0.2042
     23 N23         7.3930    4.0880   20.4430 N.ar      1 D91        -0.2421
     24 C24         8.1550    3.3920   19.5980 C.ar      1 D91         0.0443
     25 C25         7.6620    2.3130   18.8900 C.ar      1 D91         0.0468
     26 C26         6.3410    1.9550   19.1430 C.ar      1 D91         0.0443
     27 N27         5.5600    2.6370   19.9980 N.ar      1 D91        -0.2421
     28 C28         8.5410    1.5370   17.9810 C.ar      1 D91         0.0156
     29 C29         9.7940    1.1750   18.4580 C.ar      1 D91        -0.0236
     30 C30        10.6720    0.4170   17.6740 C.ar      1 D91         0.0125
     31 N31        10.3290   -0.0100   16.4610 N.ar      1 D91        -0.2965
     32 C32         9.1020    0.3210   16.0090 C.ar      1 D91         0.0125
     33 C33         8.1730    1.0810   16.7320 C.ar      1 D91        -0.0236
     34 H1          3.6293    7.1649   22.4796 H         1 D91         0.0538
     35 H2          3.6927    5.5481   23.2598 H         1 D91         0.0538
     36 H3          6.1231    5.9366   23.8601 H         1 D91         0.0498
     37 H4          5.1033    7.2362   24.5655 H         1 D91         0.0498
     38 H5          4.8649    7.5476   20.4297 H         1 D91         0.0538
     39 H6          6.0026    6.3039   19.8087 H         1 D91         0.0538
     40 H7          7.1368    8.2856   21.0302 H         1 D91         0.0498
     41 H8          7.5376    6.6600   21.6810 H         1 D91         0.0498
     42 H9          9.7869    9.4952   23.0437 H         1 D91         0.0306
     43 H10        12.4460    8.6479   24.4873 H         1 D91         0.0543
     44 H11         7.5045    7.6050   26.2422 H         1 D91         0.2288
     45 H12         9.3151    6.7462   27.8614 H         1 D91         0.0545
     46 H13        11.7841    6.5178   28.2058 H         1 D91         0.0536
     47 H14         9.1909    3.6813   19.4629 H         1 D91         0.0969
     48 H15         5.9266    1.0939   18.6313 H         1 D91         0.0969
     49 H16        10.0967    1.4839   19.4520 H         1 D91         0.0729
     50 H17        11.6535    0.1723   18.0638 H         1 D91         0.0826
     51 H18         8.8159   -0.0235   15.0218 H         1 D91         0.0826
     52 H19         7.1945    1.3040   16.3223 H         1 D91         0.0729
@<TRIPOS>BOND
     1    1    2 1  
     2    1    3 1  
     3    2    6 1  
     4    3    4 1  
     5    3   20 am 
     6    4    5 1  
     7    5    6 1  
     8    6    7 am 
     9    7    8 2  
    10    7    9 2  
    11    7   10 1  
    12   10   11 2  
    13   10   17 1  
    14   11   12 1  
    15   12   13 ar 
    16   12   16 ar 
    17   13   14 ar 
    18   14   15 1  
    19   14   19 ar 
    20   16   17 1  
    21   16   18 ar 
    22   18   19 ar 
    23   20   21 2  
    24   20   22 1  
    25   22   23 ar 
    26   22   27 ar 
    27   23   24 ar 
    28   24   25 ar 
    29   25   26 ar 
    30   25   28 1  
    31   26   27 ar 
    32   28   29 ar 
    33   28   33 ar 
    34   29   30 ar 
    35   30   31 ar 
    36   31   32 ar 
    37   32   33 ar 
    38    1   34 1  
    39    1   35 1  
    40    2   36 1  
    41    2   37 1  
    42    4   38 1  
    43    4   39 1  
    44    5   40 1  
    45    5   41 1  
    46   11   42 1  
    47   13   43 1  
    48   17   44 1  
    49   18   45 1  
    50   19   46 1  
    51   24   47 1  
    52   26   48 1  
    53   29   49 1  
    54   30   50 1  
    55   32   51 1  
    56   33   52 1  
@<TRIPOS>SUBSTRUCTURE
     1 D91         1

