### 
### Created by X-TOOL on Mon Sep 10 21:12:53 2018
### 

@<TRIPOS>MOLECULE
1wug_ligand
   31    31     1     0     0
SMALL
GAST_HUCK


@<TRIPOS>ATOM
      1 NZ         -3.6380   10.3050  -11.7450 N.4       1 NP1         0.2186
      2 CA         -3.8220   10.2210  -10.2630 C.3       1 NP1        -0.0321
      3 CB         -5.3160   10.4630  -10.0230 C.3       1 NP1         0.0221
      4 CG         -6.1360    9.4400  -10.8170 C.3       1 NP1         0.0899
      5 NE         -7.4370   10.1180  -11.1070 N.pl3     1 NP1        -0.1959
      6 CD         -8.2210   10.5360  -10.1120 C.ar      1 NP1         0.2910
      7 CE1        -7.9790   11.7940   -9.5060 C.ar      1 NP1         0.1344
      8 CE2        -9.3250    9.7510   -9.6870 C.ar      1 NP1         0.2740
      9 NO2        -9.5770    8.5730  -10.2490 N.2       1 NP1        -0.1520
     10 OC1        -8.7470    8.0840  -11.2930 O.2       1 NP1        -0.4670
     11 OC2       -10.6830    7.8020   -9.7970 O.2       1 NP1        -0.4670
     12 CR1        -8.8190   12.2520   -8.4650 C.ar      1 NP1         0.0953
     13 CR2       -10.1630   10.2150   -8.6480 C.ar      1 NP1         0.1252
     14 CZ         -9.9100   11.4630   -8.0380 C.ar      1 NP1         0.1179
     15 CM        -10.8110   11.9540   -6.9360 C.3       1 NP1         0.0490
     16 H1         -2.6677   10.1534  -11.9722 H         1 NP1         0.1994
     17 H2         -3.9200   11.2175  -12.0674 H         1 NP1         0.1994
     18 H3         -4.2022    9.6007  -12.1941 H         1 NP1         0.1994
     19 H4         -3.2214   10.9909   -9.7565 H         1 NP1         0.0814
     20 H5         -3.5294    9.2266   -9.8948 H         1 NP1         0.0814
     21 H6         -5.5800   11.4788  -10.3523 H         1 NP1         0.0351
     22 H7         -5.5367   10.3562   -8.9507 H         1 NP1         0.0351
     23 H8         -6.2999    8.5306  -10.2202 H         1 NP1         0.0708
     24 H9         -5.6216    9.1766  -11.7530 H         1 NP1         0.0708
     25 H10        -7.7303   10.2635  -12.0836 H         1 NP1         0.2949
     26 H11        -7.1491   12.4057   -9.8409 H         1 NP1         0.1355
     27 H12        -8.6256   13.2092   -7.9943 H         1 NP1         0.1188
     28 H13       -11.0014    9.6118   -8.3188 H         1 NP1         0.1229
     29 H14       -10.4606   12.9363   -6.5862 H         1 NP1         0.0839
     30 H15       -10.7915   11.2389   -6.1004 H         1 NP1         0.0839
     31 H16       -11.8391   12.0456   -7.3163 H         1 NP1         0.0839
@<TRIPOS>BOND
     1    1    2 1  
     2    1   16 1  
     3    1   17 1  
     4    2    3 1  
     5    1   18 1  
     6    2   19 1  
     7    3    4 1  
     8    2   20 1  
     9    3   21 1  
    10    4    5 1  
    11    3   22 1  
    12    4   23 1  
    13    5    6 1  
    14    4   24 1  
    15    6    7 ar 
    16    6    8 ar 
    17    7   12 ar 
    18    5   25 1  
    19    8    9 1  
    20    8   13 ar 
    21    9   10 2  
    22    9   11 2  
    23   12   14 ar 
    24    7   26 1  
    25   13   14 ar 
    26   12   27 1  
    27   14   15 1  
    28   13   28 1  
    29   15   29 1  
    30   15   30 1  
    31   15   31 1  
@<TRIPOS>SUBSTRUCTURE
     1 NP1         1

