### 
### Created by X-TOOL on Mon Sep 10 21:12:53 2018
### 

@<TRIPOS>MOLECULE
1wum_ligand
   28    28     1     0     0
SMALL
GAST_HUCK


@<TRIPOS>ATOM
      1 NZ        -14.7480   -3.9980    7.0370 N.4       1 NP2         0.2186
      2 CA        -14.7000   -4.5690    5.6620 C.3       1 NP2        -0.0335
      3 CB        -13.6160   -3.7600    4.9410 C.3       1 NP2         0.0072
      4 CG        -13.9040   -2.2520    5.0530 C.3       1 NP2         0.0305
      5 NE        -15.3610   -2.0670    4.7570 N.pl3     1 NP2        -0.3159
      6 CD        -15.7280   -1.4380    3.6440 C.ar      1 NP2         0.0835
      7 CE1       -16.2620   -2.1840    2.5700 C.ar      1 NP2        -0.0352
      8 CE2       -15.5740   -0.0300    3.5200 C.ar      1 NP2         0.2165
      9 NO2       -15.0710    0.6940    4.5210 N.2       1 NP2         0.3063
     10 OC1       -14.6830    0.0730    5.7370 O.2       1 NP2         0.1710
     11 OC2       -14.9290    2.1000    4.3710 O.2       1 NP2         0.1710
     12 CR1       -16.6480   -1.5370    1.3770 C.ar      1 NP2        -0.0680
     13 CR2       -15.9590    0.6160    2.3200 C.ar      1 NP2        -0.0299
     14 CZ        -16.4930   -0.1360    1.2500 C.ar      1 NP2        -0.0666
     15 H1        -15.4458   -4.4839    7.5784 H         1 NP2         0.1994
     16 H2        -14.9835   -3.0192    6.9864 H         1 NP2         0.1994
     17 H3        -13.8473   -4.1046    7.4768 H         1 NP2         0.1994
     18 H4        -15.6710   -4.4507    5.1589 H         1 NP2         0.0814
     19 H5        -14.4311   -5.6351    5.6941 H         1 NP2         0.0814
     20 H6        -13.5964   -4.0468    3.8792 H         1 NP2         0.0336
     21 H7        -12.6389   -3.9767    5.3975 H         1 NP2         0.0336
     22 H8        -13.2959   -1.6951    4.3249 H         1 NP2         0.0518
     23 H9        -13.6759   -1.8972    6.0689 H         1 NP2         0.0518
     24 H10       -16.0728   -2.4241    5.4102 H         1 NP2         0.1789
     25 H11       -16.3757   -3.2580    2.6627 H         1 NP2         0.0532
     26 H12       -17.0632   -2.1129    0.5579 H         1 NP2         0.0627
     27 H13       -15.8437    1.6894    2.2224 H         1 NP2         0.0657
     28 H14       -16.7842    0.3602    0.3313 H         1 NP2         0.0523
@<TRIPOS>BOND
     1    1    2 1  
     2    1   15 1  
     3    1   16 1  
     4    2    3 1  
     5    1   17 1  
     6    2   18 1  
     7    3    4 1  
     8    2   19 1  
     9    3   20 1  
    10    4    5 1  
    11    3   21 1  
    12    4   22 1  
    13    5    6 1  
    14    4   23 1  
    15    6    7 ar 
    16    6    8 ar 
    17    7   12 ar 
    18    5   24 1  
    19    8    9 1  
    20    8   13 ar 
    21    9   10 2  
    22    9   11 2  
    23   12   14 ar 
    24    7   25 1  
    25   13   14 ar 
    26   12   26 1  
    27   13   27 1  
    28   14   28 1  
@<TRIPOS>SUBSTRUCTURE
     1 NP2         1

