### 
### Created by X-TOOL on Mon Sep 10 21:12:53 2018
### 

@<TRIPOS>MOLECULE
1wun_ligand
   73    75     1     0     0
SMALL
GAST_HUCK


@<TRIPOS>ATOM
      1 C14        35.7730    7.0680   10.1130 C.2       1 P5B         0.2012
      2 O1         34.8520    7.2770   10.8820 O.2       1 P5B        -0.3947
      3 N5         35.7950    7.5510    8.8350 N.am      1 P5B        -0.2638
      4 C15        34.6750    8.3580    8.3860 C.3       1 P5B         0.1330
      5 C18        34.7970    8.6720    6.9000 C.3       1 P5B         0.0045
      6 C19        36.0620    9.4510    6.5140 C.3       1 P5B         0.0412
      7 C20        33.3730    7.5940    8.7050 C.2       1 P5B         0.2036
      8 O5         33.3080    6.3730    8.5780 O.2       1 P5B        -0.3944
      9 N6         32.3690    8.3840    9.1360 N.am      1 P5B        -0.2737
     10 C21        31.1260    7.7340    9.4310 C.3       1 P5B         0.0645
     11 C16        31.7550    6.6250   11.5950 C.ar      1 P5B        -0.0584
     12 C17        31.5200    6.3720   12.9460 C.ar      1 P5B        -0.0633
     13 C22        30.4610    6.9910   13.6330 C.ar      1 P5B         0.0188
     14 C23        29.5880    7.8300   12.9270 C.ar      1 P5B        -0.0633
     15 C24        29.7950    8.0710   11.5580 C.ar      1 P5B        -0.0584
     16 C25        30.8830    7.4740   10.8900 C.ar      1 P5B        -0.0210
     17 C26        30.2960    6.7540   15.0730 C.cat     1 P5B         0.2318
     18 N1         30.9440    5.7520   15.6580 N.pl3     1 P5B        -0.2729
     19 C2         35.9090    9.8440    5.0660 C.2       1 P5B         0.1737
     20 O2         35.6410    9.0300    4.2120 O.2       1 P5B        -0.3973
     21 N3         35.9960   11.1390    4.8280 N.am      1 P5B        -0.3009
     22 C1         37.9740    7.1250   11.2960 C.3       1 P5B         0.0007
     23 N4         36.5520    5.1740   11.4790 N.am      1 P5B        -0.2287
     24 C5         36.9920    6.2180   10.5740 C.3       1 P5B         0.1301
     25 S1         36.3910    3.5860   10.8490 S.o2      1 P5B         0.0410
     26 O4         35.7540    3.7920    9.5960 O.2       1 P5B        -0.1554
     27 O3         35.7240    2.8650   11.8770 O.2       1 P5B        -0.1554
     28 C9         37.9750    2.9600   10.5980 C.3       1 P5B         0.0818
     29 C8         38.4440    2.6500   12.0240 C.3       1 P5B        -0.0440
     30 N2         29.4830    7.4900   15.8250 N.pl3     1 P5B        -0.2729
     31 C10        41.4320    4.5880   14.6690 C.ar      1 P5B        -0.0768
     32 C7         41.8850    4.7290   13.3120 C.ar      1 P5B        -0.0443
     33 C3         41.1220    5.3680   12.3400 C.ar      1 P5B         0.0603
     34 C4         39.8230    5.8900   12.6930 C.ar      1 P5B        -0.0214
     35 C11        39.3820    5.7780   14.0210 C.ar      1 P5B        -0.0747
     36 C6         40.1640    5.1270   15.0380 C.ar      1 P5B        -0.0792
     37 N7         41.3380    5.6430   11.0040 N.pl3     1 P5B        -0.2891
     38 C13        40.2610    6.2730   10.4920 C.2       1 P5B         0.0166
     39 C12        39.2880    6.4510   11.4890 C.2       1 P5B        -0.0422
     40 H1         36.5625    7.3537    8.2250 H         1 P5B         0.1883
     41 H2         34.6731    9.3081    8.9404 H         1 P5B         0.0801
     42 H3         33.9222    9.2688    6.6023 H         1 P5B         0.0337
     43 H4         34.7975    7.7210    6.3471 H         1 P5B         0.0337
     44 H5         36.9511    8.8161    6.6418 H         1 P5B         0.0504
     45 H6         36.1595   10.3492    7.1415 H         1 P5B         0.0504
     46 H7         32.4854    9.3713    9.2442 H         1 P5B         0.1878
     47 H8         31.1110    6.7685    8.9041 H         1 P5B         0.0683
     48 H9         30.3100    8.3692    9.0559 H         1 P5B         0.0683
     49 H10        32.6019    6.1715   11.0928 H         1 P5B         0.0557
     50 H11        32.1672    5.6838   13.4776 H         1 P5B         0.0599
     51 H12        28.7518    8.2937   13.4377 H         1 P5B         0.0599
     52 H13        29.1160    8.7178   11.0143 H         1 P5B         0.0557
     53 H14        30.8294    5.5844   16.6678 H         1 P5B         0.3180
     54 H15        31.5608    5.1430   15.1016 H         1 P5B         0.3180
     55 H16        35.9055   11.4828    3.8933 H         1 P5B         0.1814
     56 H17        36.1525   11.7766    5.5823 H         1 P5B         0.1814
     57 H18        37.5597    7.3917   12.2795 H         1 P5B         0.0392
     58 H19        38.1232    8.0381   10.7011 H         1 P5B         0.0392
     59 H20        36.3492    5.3727   12.4379 H         1 P5B         0.1703
     60 H21        37.4790    5.7645    9.6981 H         1 P5B         0.0768
     61 H22        38.6257    3.7070   10.1200 H         1 P5B         0.0515
     62 H23        37.9486    2.0489    9.9822 H         1 P5B         0.0515
     63 H24        39.4629    2.2365   11.9931 H         1 P5B         0.0246
     64 H25        37.7644    1.9165   12.4822 H         1 P5B         0.0246
     65 H26        38.4415    3.5745   12.6200 H         1 P5B         0.0246
     66 H27        28.9640    8.2750   15.4063 H         1 P5B         0.3180
     67 H28        29.3722    7.2751   16.8262 H         1 P5B         0.3180
     68 H29        42.0463    4.0785   15.4026 H         1 P5B         0.0530
     69 H30        42.8524    4.3243   13.0373 H         1 P5B         0.0541
     70 H31        38.4188    6.1966   14.2895 H         1 P5B         0.0540
     71 H32        39.7999    5.0483   16.0560 H         1 P5B         0.0510
     72 H33        42.1911    5.4036   10.4789 H         1 P5B         0.2216
     73 H34        40.1605    6.5964    9.4570 H         1 P5B         0.0795
@<TRIPOS>BOND
     1    1    2 2  
     2    1    3 am 
     3   24    1 1  
     4    3    4 1  
     5    4    5 1  
     6    4    7 1  
     7    5    6 1  
     8    6   19 1  
     9    7    8 2  
    10    7    9 am 
    11    9   10 1  
    12   10   16 1  
    13   11   12 ar 
    14   16   11 ar 
    15   12   13 ar 
    16   14   13 ar 
    17   13   17 1  
    18   15   14 ar 
    19   16   15 ar 
    20   17   18 ar 
    21   17   30 ar 
    22   19   20 2  
    23   19   21 am 
    24   22   24 1  
    25   39   22 1  
    26   24   23 1  
    27   23   25 am 
    28   25   26 2  
    29   25   27 2  
    30   25   28 1  
    31   28   29 1  
    32   32   31 ar 
    33   31   36 ar 
    34   33   32 ar 
    35   34   33 ar 
    36   33   37 1  
    37   34   35 ar 
    38   34   39 1  
    39   35   36 ar 
    40   37   38 1  
    41   38   39 2  
    42    3   40 1  
    43    4   41 1  
    44    5   42 1  
    45    5   43 1  
    46    6   44 1  
    47    6   45 1  
    48    9   46 1  
    49   10   47 1  
    50   10   48 1  
    51   11   49 1  
    52   12   50 1  
    53   14   51 1  
    54   15   52 1  
    55   18   53 1  
    56   18   54 1  
    57   21   55 1  
    58   21   56 1  
    59   22   57 1  
    60   22   58 1  
    61   23   59 1  
    62   24   60 1  
    63   28   61 1  
    64   28   62 1  
    65   29   63 1  
    66   29   64 1  
    67   29   65 1  
    68   30   66 1  
    69   30   67 1  
    70   31   68 1  
    71   32   69 1  
    72   35   70 1  
    73   36   71 1  
    74   37   72 1  
    75   38   73 1  
@<TRIPOS>SUBSTRUCTURE
     1 P5B         1

