### 
### Created by X-TOOL on Mon Sep 10 21:12:53 2018
### 

@<TRIPOS>MOLECULE
1wv7_ligand
   83    85     1     0     0
SMALL
GAST_HUCK


@<TRIPOS>ATOM
      1 C14        35.7740    6.9790   10.1450 C.2       1 5PI         0.2012
      2 O1         34.9010    7.2020   10.9750 O.2       1 5PI        -0.3947
      3 N5         35.6940    7.3980    8.8290 N.am      1 5PI        -0.2638
      4 C15        34.5660    8.2960    8.4030 C.3       1 5PI         0.1330
      5 C18        34.5740    8.6430    6.9450 C.3       1 5PI         0.0045
      6 C19        35.8950    9.2320    6.5120 C.3       1 5PI         0.0412
      7 C20        33.1820    7.6680    8.6590 C.2       1 5PI         0.2036
      8 O5         32.9490    6.4990    8.4180 O.2       1 5PI        -0.3944
      9 N6         32.2920    8.4820    9.1540 N.am      1 5PI        -0.2737
     10 C21        30.9790    7.9410    9.3810 C.3       1 5PI         0.0645
     11 C16        31.5000    6.5260   11.4320 C.ar      1 5PI        -0.0584
     12 C17        31.2590    6.2100   12.7690 C.ar      1 5PI        -0.0633
     13 C22        30.2530    6.8840   13.4990 C.ar      1 5PI         0.0188
     14 C23        29.4200    7.7840   12.8200 C.ar      1 5PI        -0.0633
     15 C24        29.6320    8.0750   11.4820 C.ar      1 5PI        -0.0584
     16 C25        30.6960    7.4900   10.7870 C.ar      1 5PI        -0.0210
     17 C26        30.1390    6.7110   14.9680 C.cat     1 5PI         0.2318
     18 N1         30.8910    5.8260   15.6130 N.pl3     1 5PI        -0.2729
     19 C2         35.8570    9.6840    5.0940 C.2       1 5PI         0.1737
     20 O2         35.8560    8.9050    4.1830 O.2       1 5PI        -0.3973
     21 N3         35.8520   10.9840    4.9390 N.am      1 5PI        -0.3009
     22 C1         38.1050    7.0270   11.3580 C.3       1 5PI        -0.0001
     23 N4         36.4140    5.1670   11.4510 N.am      1 5PI        -0.2287
     24 C5         37.0170    6.1760   10.6080 C.3       1 5PI         0.1300
     25 S1         36.5060    3.5670   10.9480 S.o2      1 5PI         0.0410
     26 O4         36.2900    3.7220    9.5530 O.2       1 5PI        -0.1554
     27 O3         35.6000    2.9280   11.8390 O.2       1 5PI        -0.1554
     28 C9         38.1460    2.9610   11.1240 C.3       1 5PI         0.0818
     29 C8         38.4220    2.5360   12.5240 C.3       1 5PI        -0.0440
     30 N2         29.3480    7.5000   15.7080 N.pl3     1 5PI        -0.2729
     31 C13        43.1090    4.8000   10.8560 C.ar      1 5PI        -0.0456
     32 C12        42.5070    4.6640   12.1520 C.ar      1 5PI        -0.0495
     33 C3         41.2310    5.1690   12.4430 C.ar      1 5PI         0.0512
     34 C4         40.4820    5.8250   11.4020 C.ar      1 5PI        -0.0312
     35 C27        41.0740    5.9800   10.1360 C.ar      1 5PI        -0.0487
     36 C6         42.3970    5.4860    9.8220 C.ar      1 5PI         0.0728
     37 N7         40.4810    5.2520   13.6020 N.pl3     1 5PI        -0.2936
     38 C29        39.3170    5.8940   13.3500 C.2       1 5PI         0.0142
     39 C28        39.2480    6.2620   11.9990 C.2       1 5PI        -0.0462
     40 O6         43.0580    5.6440    8.5930 O.3       1 5PI        -0.3270
     41 C7         42.2790    5.3630    7.4420 C.3       1 5PI         0.0675
     42 C10        43.1820    5.5340    6.2220 C.3       1 5PI        -0.0283
     43 C11        42.4650    5.1750    4.9230 C.3       1 5PI        -0.0629
     44 H1         36.3822    7.1054    8.1652 H         1 5PI         0.1883
     45 H2         34.6511    9.2248    8.9862 H         1 5PI         0.0801
     46 H3         33.7772    9.3758    6.7498 H         1 5PI         0.0337
     47 H4         34.3837    7.7302    6.3614 H         1 5PI         0.0337
     48 H5         36.6791    8.4685    6.6220 H         1 5PI         0.0504
     49 H6         36.1292   10.0934    7.1547 H         1 5PI         0.0504
     50 H7         32.5113    9.4345    9.3652 H         1 5PI         0.1878
     51 H8         30.8503    7.0747    8.7155 H         1 5PI         0.0683
     52 H9         30.2438    8.7164    9.1200 H         1 5PI         0.0683
     53 H10        32.3004    6.0339   10.8914 H         1 5PI         0.0557
     54 H11        31.8488    5.4401   13.2532 H         1 5PI         0.0599
     55 H12        28.6003    8.2579   13.3479 H         1 5PI         0.0599
     56 H13        28.9680    8.7616   10.9695 H         1 5PI         0.0557
     57 H14        30.7992    5.7186   16.6333 H         1 5PI         0.3180
     58 H15        31.5658    5.2473   15.0928 H         1 5PI         0.3180
     59 H16        35.8273   11.3779    4.0202 H         1 5PI         0.1814
     60 H17        35.8729   11.5831    5.7394 H         1 5PI         0.1814
     61 H18        37.5961    7.5927   12.1523 H         1 5PI         0.0390
     62 H19        38.5401    7.7275   10.6300 H         1 5PI         0.0390
     63 H20        35.9571    5.4140   12.3056 H         1 5PI         0.1703
     64 H21        37.5016    5.7055    9.7398 H         1 5PI         0.0768
     65 H22        38.8530    3.7564   10.8457 H         1 5PI         0.0515
     66 H23        38.2824    2.0986   10.4550 H         1 5PI         0.0515
     67 H24        39.4544    2.1634   12.5973 H         1 5PI         0.0246
     68 H25        37.7225    1.7364   12.8091 H         1 5PI         0.0246
     69 H26        38.2932    3.3942   13.1999 H         1 5PI         0.0246
     70 H27        28.7474    8.2010   15.2512 H         1 5PI         0.3180
     71 H28        29.3407    7.4054   16.7336 H         1 5PI         0.3180
     72 H29        44.0926    4.3873   10.6628 H         1 5PI         0.0482
     73 H30        43.0578    4.1530   12.9334 H         1 5PI         0.0526
     74 H31        40.5146    6.4920    9.3614 H         1 5PI         0.0435
     75 H32        40.7659    4.8807   14.5195 H         1 5PI         0.2193
     76 H33        38.5444    6.0959   14.0905 H         1 5PI         0.0790
     77 H34        41.4315    6.0617    7.3825 H         1 5PI         0.0609
     78 H35        41.9009    4.3310    7.4874 H         1 5PI         0.0609
     79 H36        44.0593    4.8802    6.3354 H         1 5PI         0.0288
     80 H37        43.5106    6.5824    6.1678 H         1 5PI         0.0288
     81 H38        43.1518    5.3129    4.0749 H         1 5PI         0.0231
     82 H39        41.5889    5.8278    4.7952 H         1 5PI         0.0231
     83 H40        42.1377    4.1256    4.9628 H         1 5PI         0.0231
@<TRIPOS>BOND
     1    1    2 2  
     2    1    3 am 
     3   24    1 1  
     4    3    4 1  
     5    4    5 1  
     6    4    7 1  
     7    5    6 1  
     8    6   19 1  
     9    7    8 2  
    10    7    9 am 
    11    9   10 1  
    12   10   16 1  
    13   11   12 ar 
    14   16   11 ar 
    15   12   13 ar 
    16   14   13 ar 
    17   13   17 1  
    18   15   14 ar 
    19   16   15 ar 
    20   17   18 ar 
    21   17   30 ar 
    22   19   20 2  
    23   19   21 am 
    24   22   24 1  
    25   39   22 1  
    26   24   23 1  
    27   23   25 am 
    28   25   26 2  
    29   25   27 2  
    30   25   28 1  
    31   28   29 1  
    32   32   31 ar 
    33   31   36 ar 
    34   33   32 ar 
    35   34   33 ar 
    36   33   37 1  
    37   34   35 ar 
    38   34   39 1  
    39   35   36 ar 
    40   36   40 1  
    41   37   38 1  
    42   38   39 2  
    43   40   41 1  
    44   41   42 1  
    45   42   43 1  
    46    3   44 1  
    47    4   45 1  
    48    5   46 1  
    49    5   47 1  
    50    6   48 1  
    51    6   49 1  
    52    9   50 1  
    53   10   51 1  
    54   10   52 1  
    55   11   53 1  
    56   12   54 1  
    57   14   55 1  
    58   15   56 1  
    59   18   57 1  
    60   18   58 1  
    61   21   59 1  
    62   21   60 1  
    63   22   61 1  
    64   22   62 1  
    65   23   63 1  
    66   24   64 1  
    67   28   65 1  
    68   28   66 1  
    69   29   67 1  
    70   29   68 1  
    71   29   69 1  
    72   30   70 1  
    73   30   71 1  
    74   31   72 1  
    75   32   73 1  
    76   35   74 1  
    77   37   75 1  
    78   38   76 1  
    79   41   77 1  
    80   41   78 1  
    81   42   79 1  
    82   42   80 1  
    83   43   81 1  
    84   43   82 1  
    85   43   83 1  
@<TRIPOS>SUBSTRUCTURE
     1 5PI         1

