### 
### Created by X-TOOL on Mon Sep 10 21:12:52 2018
### 

@<TRIPOS>MOLECULE
1wvj_ligand
   31    32     1     0     0
SMALL
GAST_HUCK


@<TRIPOS>ATOM
      1 O4         14.5280    6.1050   25.6950 O.co2     1 IBC        -0.5641
      2 C11        13.3860    6.5150   25.3340 C.2       1 IBC         0.0862
      3 O3         12.3640    6.6420   26.1070 O.co2     1 IBC        -0.5641
      4 C10        13.1520    6.8720   23.8240 C.3       1 IBC         0.0348
      5 N2         11.6850    7.1740   23.5420 N.4       1 IBC         0.2339
      6 C9         14.0900    8.0690   23.4630 C.3       1 IBC         0.0203
      7 C4         13.8860    8.6340   22.0520 C.2       1 IBC        -0.0716
      8 C1         14.1520    7.7710   20.8880 C.2       1 IBC         0.0570
      9 C5         13.3980    9.9060   21.9650 C.2       1 IBC        -0.1156
     10 C6         13.0580   10.7310   20.7270 C.3       1 IBC        -0.0455
     11 C7         12.1430   10.0280   19.7130 C.3       1 IBC        -0.0316
     12 C8         12.7920    8.8900   18.8830 C.3       1 IBC         0.0290
     13 C3         13.6830    7.9160   19.5900 C.2       1 IBC         0.1489
     14 O1         14.1260    6.9320   18.7880 O.3       1 IBC        -0.1575
     15 N1         14.9690    6.0530   19.5750 N.am      1 IBC        -0.1323
     16 C2         14.9910    6.5390   20.8350 C.2       1 IBC         0.1962
     17 O2         15.6350    6.0080   21.7880 O.2       1 IBC        -0.4199
     18 H1         13.4401    6.0065   23.2092 H         1 IBC         0.1045
     19 H2         11.5698    7.3988   22.5662 H         1 IBC         0.2011
     20 H3         11.3889    7.9565   24.1042 H         1 IBC         0.2011
     21 H4         11.1260    6.3665   23.7690 H         1 IBC         0.2011
     22 H5         15.1319    7.7270   23.5487 H         1 IBC         0.0460
     23 H6         13.9089    8.8777   24.1863 H         1 IBC         0.0460
     24 H7         13.2263   10.4046   22.9178 H         1 IBC         0.0223
     25 H8         13.9989   10.9872   20.2180 H         1 IBC         0.0347
     26 H9         12.5571   11.6528   21.0576 H         1 IBC         0.0347
     27 H10        11.7740   10.7887   19.0094 H         1 IBC         0.0314
     28 H11        11.2951    9.5986   20.2667 H         1 IBC         0.0314
     29 H12        13.3910    9.3646   18.0919 H         1 IBC         0.0542
     30 H13        11.9745    8.3122   18.4272 H         1 IBC         0.0542
     31 H14        15.4458    5.2379   19.2458 H         1 IBC         0.2330
@<TRIPOS>BOND
     1    1    2 ar 
     2    2    3 ar 
     3    2    4 1  
     4    4    5 1  
     5    4    6 1  
     6    6    7 1  
     7    7    8 1  
     8    7    9 2  
     9    8   13 2  
    10    8   16 1  
    11    9   10 1  
    12   10   11 1  
    13   11   12 1  
    14   12   13 1  
    15   13   14 1  
    16   14   15 1  
    17   15   16 am 
    18   16   17 2  
    19    4   18 1  
    20    5   19 1  
    21    5   20 1  
    22    5   21 1  
    23    6   22 1  
    24    6   23 1  
    25    9   24 1  
    26   10   25 1  
    27   10   26 1  
    28   11   27 1  
    29   11   28 1  
    30   12   29 1  
    31   12   30 1  
    32   15   31 1  
@<TRIPOS>SUBSTRUCTURE
     1 IBC         1

