### 
### Created by X-TOOL on Mon Sep 10 21:12:53 2018
### 

@<TRIPOS>MOLECULE
1wxz_ligand
   51    54     1     0     0
SMALL
GAST_HUCK


@<TRIPOS>ATOM
      1 C1         47.3620   52.3190   15.2830 C.ar      1 FRL        -0.0423
      2 C2         47.2750   53.5770   15.9120 C.ar      1 FRL        -0.0423
      3 C3         48.1510   53.9590   16.9310 C.ar      1 FRL         0.0466
      4 C4         49.1070   53.0510   17.3860 C.ar      1 FRL        -0.0423
      5 C5         49.2230   51.7780   16.7580 C.ar      1 FRL        -0.0423
      6 C6         48.3670   51.4350   15.6790 C.ar      1 FRL         0.0451
      7 CL7        48.5900   50.0410   14.7520 Cl        1 FRL        -0.0663
      8 C8         48.0240   55.2940   17.4850 C.2       1 FRL         0.2023
      9 N9         47.4860   56.3100   16.7930 N.2       1 FRL        -0.2887
     10 C10        47.4740   57.4220   17.6190 C.ar      1 FRL         0.0435
     11 C11        48.0670   56.9890   18.8620 C.ar      1 FRL         0.1469
     12 O12        48.3890   55.6670   18.7500 O.3       1 FRL        -0.2237
     13 C13        47.0500   58.7340   17.4680 C.ar      1 FRL        -0.0648
     14 C14        47.1950   59.6890   18.5080 C.ar      1 FRL        -0.0816
     15 C15        47.7880   59.2780   19.7390 C.ar      1 FRL        -0.0703
     16 C16        48.2200   57.9140   19.8920 C.ar      1 FRL        -0.0073
     17 C17        48.8770   57.4510   21.1530 C.3       1 FRL        -0.0169
     18 C18        50.2810   58.0670   21.2890 C.3       1 FRL        -0.0101
     19 C19        51.4610   57.1710   21.6880 C.3       1 FRL         0.0992
     20 C20        52.8040   57.8520   21.7660 C.3       1 FRL         0.0840
     21 O21        53.4100   57.5480   23.0170 O.3       1 FRL        -0.3889
     22 N22        51.3530   55.7490   22.0510 N.pl3     1 FRL        -0.2365
     23 C23        53.6540   57.5830   20.4980 C.3       1 FRL        -0.0359
     24 C24        51.4060   55.1960   23.2850 C.2       1 FRL         0.1035
     25 N25        51.2790   53.8350   23.2370 N.2       1 FRL        -0.3095
     26 C26        51.1430   53.4740   21.9280 C.2       1 FRL         0.0902
     27 C27        51.1800   54.6810   21.1850 C.2       1 FRL         0.0642
     28 C28        51.1010   52.1900   21.4230 C.2       1 FRL         0.1892
     29 O29        51.0150   52.0010   20.2160 O.2       1 FRL        -0.3981
     30 N30        51.1790   51.1750   22.2410 N.am      1 FRL        -0.3040
     31 H1         46.6601   52.0424   14.5046 H         1 FRL         0.0634
     32 H2         46.5041   54.2701   15.5952 H         1 FRL         0.0667
     33 H3         49.7577   53.3126   18.2125 H         1 FRL         0.0667
     34 H4         49.9666   51.0696   17.1048 H         1 FRL         0.0634
     35 H5         46.5962   59.0378   16.5316 H         1 FRL         0.0498
     36 H6         46.8616   60.7111   18.3697 H         1 FRL         0.0516
     37 H7         47.9118   59.9860   20.5505 H         1 FRL         0.0487
     38 H8         48.9634   56.3546   21.1343 H         1 FRL         0.0412
     39 H9         48.2634   57.7559   22.0135 H         1 FRL         0.0412
     40 H10        50.2107   58.8607   22.0473 H         1 FRL         0.0317
     41 H11        50.5316   58.5118   20.3147 H         1 FRL         0.0317
     42 H12        51.6228   56.8913   20.6365 H         1 FRL         0.0694
     43 H13        52.6172   58.9360   21.7731 H         1 FRL         0.0623
     44 H14        52.8529   57.8583   23.7212 H         1 FRL         0.2099
     45 H15        54.6235   58.0942   20.5913 H         1 FRL         0.0255
     46 H16        53.1227   57.9631   19.6130 H         1 FRL         0.0255
     47 H17        53.8191   56.5008   20.3900 H         1 FRL         0.0255
     48 H18        51.5342   55.7654   24.2044 H         1 FRL         0.1238
     49 H19        51.0870   54.7570   20.1026 H         1 FRL         0.0990
     50 H20        51.1494   50.2415   21.8837 H         1 FRL         0.1799
     51 H21        51.2684   51.3313   23.2247 H         1 FRL         0.1799
@<TRIPOS>BOND
     1    1    2 ar 
     2    1    6 ar 
     3    2    3 ar 
     4    3    4 ar 
     5    3    8 1  
     6    4    5 ar 
     7    5    6 ar 
     8    6    7 1  
     9    8    9 2  
    10    8   12 1  
    11    9   10 1  
    12   10   11 ar 
    13   10   13 ar 
    14   11   12 1  
    15   11   16 ar 
    16   13   14 ar 
    17   14   15 ar 
    18   15   16 ar 
    19   16   17 1  
    20   17   18 1  
    21   18   19 1  
    22   19   20 1  
    23   19   22 1  
    24   20   21 1  
    25   20   23 1  
    26   22   24 1  
    27   22   27 1  
    28   24   25 2  
    29   25   26 1  
    30   26   27 2  
    31   26   28 1  
    32   28   29 2  
    33   28   30 am 
    34    1   31 1  
    35    2   32 1  
    36    4   33 1  
    37    5   34 1  
    38   13   35 1  
    39   14   36 1  
    40   15   37 1  
    41   17   38 1  
    42   17   39 1  
    43   18   40 1  
    44   18   41 1  
    45   19   42 1  
    46   20   43 1  
    47   21   44 1  
    48   23   45 1  
    49   23   46 1  
    50   23   47 1  
    51   24   48 1  
    52   27   49 1  
    53   30   50 1  
    54   30   51 1  
@<TRIPOS>SUBSTRUCTURE
     1 FRL         1

