### 
### Created by X-TOOL on Mon Sep 10 21:12:53 2018
### 

@<TRIPOS>MOLECULE
1wzy_ligand
   48    52     1     0     0
SMALL
GAST_HUCK


@<TRIPOS>ATOM
      1 C1          2.0450    9.4760   41.2540 C.ar      1 F29        -0.0738
      2 C2          2.2660    9.0370   42.6210 C.ar      1 F29        -0.0395
      3 N3          3.5810    8.8170   43.0880 C.ar      1 F29         0.0728
      4 C4          4.7630    9.0150   42.3420 C.ar      1 F29        -0.0032
      5 C5          4.5680    9.4050   40.9410 C.ar      1 F29        -0.0697
      6 C6          3.2260    9.6450   40.4130 C.ar      1 F29        -0.0762
      7 N7          3.9230    8.3070   44.4180 N.pl3     1 F29        -0.2604
      8 C8          5.3350    8.2570   44.4640 C.2       1 F29         0.0969
      9 C9          5.9080    8.7200   43.2030 C.2       1 F29         0.0295
     10 C10         7.3170    8.9150   42.8500 C.ar      1 F29         0.0420
     11 C11         5.9070    7.7740   45.7160 C.ar      1 F29         0.0208
     12 C12         5.1730    6.7990   46.5250 C.ar      1 F29        -0.0464
     13 C13         5.6820    6.2580   47.7760 C.ar      1 F29        -0.0576
     14 C14         6.9880    6.6520   48.2680 C.ar      1 F29        -0.0586
     15 C15         7.7450    7.6220   47.5000 C.ar      1 F29        -0.0576
     16 C16         7.2010    8.1750   46.2730 C.ar      1 F29        -0.0464
     17 C22         8.3290    7.8690   43.0010 C.ar      1 F29         0.0044
     18 C23         9.7430    8.0310   42.6790 C.ar      1 F29         0.0950
     19 C24        10.3300    9.2460   42.1470 C.ar      1 F29         0.1604
     20 N25         9.4080   10.3150   42.0010 N.ar      1 F29        -0.2753
     21 N26         7.8580   10.1350   42.3520 N.ar      1 F29        -0.3003
     22 C27        10.7430    6.9950   42.6320 C.2       1 F29         0.1377
     23 N28        11.8930    7.5550   42.0390 N.2       1 F29        -0.1957
     24 N29        11.6460    8.9790   41.6930 N.pl3     1 F29        -0.1945
     25 N30        10.5930    5.6300   42.9600 N.pl3     1 F29        -0.3261
     26 C3         12.5110    9.6130   40.7630 C.3       1 F29         0.0619
     27 C7         12.2240    9.3830   39.3590 C.3       1 F29        -0.0296
     28 C17        11.2810    8.4130   38.8260 C.3       1 F29        -0.0630
     29 H1          1.0478    9.6694   40.8755 H         1 F29         0.0548
     30 H2          1.4221    8.8783   43.2826 H         1 F29         0.0552
     31 H3          5.4280    9.5163   40.2906 H         1 F29         0.0553
     32 H4          3.1061    9.9533   39.3807 H         1 F29         0.0526
     33 H5          3.2683    8.0395   45.1668 H         1 F29         0.2311
     34 H6          4.2033    6.4640   46.1749 H         1 F29         0.0655
     35 H7          5.0815    5.5563   48.3436 H         1 F29         0.0626
     36 H8          7.3875    6.2331   49.1845 H         1 F29         0.0644
     37 H9          8.7236    7.9361   47.8446 H         1 F29         0.0626
     38 H10         7.7811    8.9216   45.7428 H         1 F29         0.0655
     39 H11         8.0055    6.9058   43.3787 H         1 F29         0.0939
     40 H12        11.3964    4.9902   42.8816 H         1 F29         0.1719
     41 H13         9.6802    5.2740   43.2777 H         1 F29         0.1719
     42 H14        13.5331    9.2568   40.9590 H         1 F29         0.0594
     43 H15        12.4597   10.6970   40.9425 H         1 F29         0.0594
     44 H16        13.1920    9.1226   38.9060 H         1 F29         0.0287
     45 H17        11.8872   10.3555   38.9707 H         1 F29         0.0287
     46 H18        11.2792    8.4688   37.7274 H         1 F29         0.0231
     47 H19        10.2728    8.6346   39.2060 H         1 F29         0.0231
     48 H20        11.5776    7.4018   39.1412 H         1 F29         0.0231
@<TRIPOS>BOND
     1    1    2 ar 
     2    1    6 ar 
     3    2    3 ar 
     4    3    4 ar 
     5    3    7 1  
     6    4    5 ar 
     7    4    9 1  
     8    5    6 ar 
     9    7    8 1  
    10    8    9 2  
    11    8   11 1  
    12    9   10 1  
    13   10   17 ar 
    14   10   21 ar 
    15   11   12 ar 
    16   11   16 ar 
    17   12   13 ar 
    18   13   14 ar 
    19   14   15 ar 
    20   15   16 ar 
    21   17   18 ar 
    22   18   19 ar 
    23   18   22 1  
    24   19   20 ar 
    25   19   24 1  
    26   20   21 ar 
    27   22   23 2  
    28   22   25 1  
    29   23   24 1  
    30   24   26 1  
    31   26   27 1  
    32   27   28 1  
    33    1   29 1  
    34    2   30 1  
    35    5   31 1  
    36    6   32 1  
    37    7   33 1  
    38   12   34 1  
    39   13   35 1  
    40   14   36 1  
    41   15   37 1  
    42   16   38 1  
    43   17   39 1  
    44   25   40 1  
    45   25   41 1  
    46   26   42 1  
    47   26   43 1  
    48   27   44 1  
    49   27   45 1  
    50   28   46 1  
    51   28   47 1  
    52   28   48 1  
@<TRIPOS>SUBSTRUCTURE
     1 F29         1

