### 
### Created by X-TOOL on Mon Sep 10 21:12:52 2018
### 

@<TRIPOS>MOLECULE
1x38_ligand
   36    38     1     0     0
SMALL
GAST_HUCK


@<TRIPOS>ATOM
      1 C1         27.0890   29.0720   35.9570 C.ar      1 IDD        -0.0315
      2 C2         27.7210   29.3130   37.1930 C.ar      1 IDD        -0.0618
      3 C3         28.4370   30.5010   37.4110 C.ar      1 IDD        -0.0669
      4 C4         28.5150   31.4520   36.3900 C.ar      1 IDD        -0.0668
      5 C5         27.8770   31.2250   35.1650 C.ar      1 IDD        -0.0669
      6 C6         27.1540   30.0460   34.9400 C.ar      1 IDD        -0.0618
      7 C1B        25.2160   26.0070   36.3480 C.2       1 IDD         0.1503
      8 C2B        24.5150   24.9610   37.1050 C.3       1 IDD         0.1599
      9 C3B        23.9770   23.8700   36.1840 C.3       1 IDD         0.1257
     10 C4B        23.4810   24.4570   34.8340 C.3       1 IDD         0.1186
     11 C5B        24.6550   25.1200   34.0780 C.3       1 IDD         0.1215
     12 C6B        24.2230   25.7140   32.7260 C.3       1 IDD         0.0776
     13 O2B        25.3560   24.4450   38.1490 O.3       1 IDD        -0.3695
     14 O3B        22.8980   23.2080   36.8500 O.3       1 IDD        -0.3839
     15 O4B        22.9120   23.4070   34.0740 O.3       1 IDD        -0.3857
     16 N1B        25.2550   26.1150   35.0080 N.pl3     1 IDD        -0.2333
     17 O6B        23.3330   26.7800   32.9360 O.3       1 IDD        -0.3918
     18 N2B        25.8650   27.0380   36.8640 N.2       1 IDD        -0.3257
     19 C7B        26.3190   27.8060   35.8170 C.2       1 IDD         0.0133
     20 C8B        25.9600   27.2630   34.6280 C.2       1 IDD         0.0456
     21 H1         27.6538   28.5741   37.9833 H         1 IDD         0.0576
     22 H2         28.9248   30.6789   38.3626 H         1 IDD         0.0604
     23 H3         29.0716   32.3688   36.5473 H         1 IDD         0.0575
     24 H4         27.9430   31.9704   34.3808 H         1 IDD         0.0604
     25 H5         26.6500   29.8846   33.9939 H         1 IDD         0.0576
     26 H6         23.6462   25.4303   37.5896 H         1 IDD         0.0863
     27 H7         24.7791   23.1453   35.9806 H         1 IDD         0.0675
     28 H8         22.7113   25.2182   35.0292 H         1 IDD         0.0654
     29 H9         25.4112   24.3500   33.8652 H         1 IDD         0.0708
     30 H10        23.7260   24.9362   32.1277 H         1 IDD         0.0589
     31 H11        25.1100   26.0797   32.1879 H         1 IDD         0.0589
     32 H12        26.1000   23.9980   37.7629 H         1 IDD         0.2139
     33 H13        23.2073   22.8514   37.6744 H         1 IDD         0.2103
     34 H14        22.1948   23.0180   34.5606 H         1 IDD         0.2100
     35 H15        22.5664   26.4643   33.3999 H         1 IDD         0.2095
     36 H16        26.1687   27.6297   33.6241 H         1 IDD         0.0879
@<TRIPOS>BOND
     1    1    2 ar 
     2    1    6 ar 
     3   19    1 1  
     4    2    3 ar 
     5    3    4 ar 
     6    5    4 ar 
     7    6    5 ar 
     8    7    8 1  
     9    7   16 1  
    10   18    7 2  
    11    8    9 1  
    12    8   13 1  
    13    9   10 1  
    14    9   14 1  
    15   11   10 1  
    16   10   15 1  
    17   11   12 1  
    18   16   11 1  
    19   12   17 1  
    20   16   20 1  
    21   18   19 1  
    22   19   20 2  
    23    2   21 1  
    24    3   22 1  
    25    4   23 1  
    26    5   24 1  
    27    6   25 1  
    28    8   26 1  
    29    9   27 1  
    30   10   28 1  
    31   11   29 1  
    32   12   30 1  
    33   12   31 1  
    34   13   32 1  
    35   14   33 1  
    36   15   34 1  
    37   17   35 1  
    38   20   36 1  
@<TRIPOS>SUBSTRUCTURE
     1 IDD         1

