### 
### Created by X-TOOL on Mon Sep 10 21:12:52 2018
### 

@<TRIPOS>MOLECULE
1x39_ligand
   41    43     1     0     0
SMALL
GAST_HUCK


@<TRIPOS>ATOM
      1 O6B        22.6510   26.5170   33.1080 O.3       1 IDE        -0.3919
      2 C6B        23.4720   25.3790   32.8820 C.3       1 IDE         0.0768
      3 C5B        23.9140   24.8050   34.2320 C.3       1 IDE         0.1168
      4 C4B        22.7560   24.1610   35.0270 C.3       1 IDE         0.1178
      5 O4B        22.1560   23.0940   34.2890 O.3       1 IDE        -0.3858
      6 C3B        23.2210   23.6260   36.4010 C.3       1 IDE         0.1252
      7 O3B        22.1180   23.0050   37.0850 O.3       1 IDE        -0.3839
      8 C2B        23.7610   24.7350   37.3040 C.3       1 IDE         0.1578
      9 O2B        24.6420   24.2380   38.3170 O.3       1 IDE        -0.3700
     10 N1B        24.5190   25.7940   35.1680 N.pl3     1 IDE        -0.2494
     11 C8B        25.2310   26.9130   34.7290 C.2       1 IDE         0.0253
     12 C7B        25.5850   27.5060   35.8960 C.2       1 IDE         0.0014
     13 N2B        25.1180   26.8060   36.9800 N.2       1 IDE        -0.3297
     14 C1B        24.4670   25.7600   36.5030 C.2       1 IDE         0.1428
     15 C7         26.4020   28.7620   35.8560 C.3       1 IDE         0.0480
     16 N1         27.4730   28.6530   36.8400 N.pl3     1 IDE        -0.3158
     17 C1         28.5890   29.5850   36.7820 C.ar      1 IDE         0.0390
     18 C6         28.3520   30.9350   36.5060 C.ar      1 IDE        -0.0444
     19 C5         29.4210   31.8310   36.4510 C.ar      1 IDE        -0.0737
     20 C4         30.7210   31.3650   36.6640 C.ar      1 IDE        -0.0751
     21 C3         30.9620   30.0140   36.9270 C.ar      1 IDE        -0.0737
     22 C2         29.8930   29.1240   36.9920 C.ar      1 IDE        -0.0444
     23 H1         23.1442   27.1715   33.5885 H         1 IDE         0.2095
     24 H2         24.3572   25.6731   32.2990 H         1 IDE         0.0589
     25 H3         22.9032   24.6186   32.3267 H         1 IDE         0.0589
     26 H4         24.6650   24.0310   34.0155 H         1 IDE         0.0699
     27 H5         21.9943   24.9356   35.1995 H         1 IDE         0.0654
     28 H6         21.4489   22.7163   34.7988 H         1 IDE         0.2100
     29 H7         24.0144   22.8823   36.2355 H         1 IDE         0.0675
     30 H8         22.4122   22.6793   37.9276 H         1 IDE         0.2103
     31 H9         22.9034   25.2114   37.8015 H         1 IDE         0.0858
     32 H10        25.3830   23.8073   37.9072 H         1 IDE         0.2138
     33 H11        25.4468   27.2286   33.7093 H         1 IDE         0.0663
     34 H12        25.7650   29.6261   36.0961 H         1 IDE         0.0617
     35 H13        26.8330   28.8918   34.8523 H         1 IDE         0.0617
     36 H14        27.4398   27.9247   37.5676 H         1 IDE         0.1774
     37 H15        27.3404   31.2851   36.3351 H         1 IDE         0.0515
     38 H16        29.2440   32.8803   36.2446 H         1 IDE         0.0583
     39 H17        31.5522   32.0597   36.6247 H         1 IDE         0.0505
     40 H18        31.9754   29.6607   37.0796 H         1 IDE         0.0583
     41 H19        30.0709   28.0761   37.2049 H         1 IDE         0.0515
@<TRIPOS>BOND
     1    1    2 1  
     2    2    3 1  
     3    3    4 1  
     4    3   10 1  
     5    4    5 1  
     6    4    6 1  
     7    6    7 1  
     8    6    8 1  
     9    8    9 1  
    10    8   14 1  
    11   10   11 1  
    12   10   14 1  
    13   11   12 2  
    14   12   13 1  
    15   12   15 1  
    16   13   14 2  
    17   15   16 1  
    18   16   17 1  
    19   17   18 ar 
    20   17   22 ar 
    21   18   19 ar 
    22   19   20 ar 
    23   20   21 ar 
    24   21   22 ar 
    25    1   23 1  
    26    2   24 1  
    27    2   25 1  
    28    3   26 1  
    29    4   27 1  
    30    5   28 1  
    31    6   29 1  
    32    7   30 1  
    33    8   31 1  
    34    9   32 1  
    35   11   33 1  
    36   15   34 1  
    37   15   35 1  
    38   16   36 1  
    39   18   37 1  
    40   19   38 1  
    41   20   39 1  
    42   21   40 1  
    43   22   41 1  
@<TRIPOS>SUBSTRUCTURE
     1 IDE         1

