### 
### Created by X-TOOL on Mon Sep 10 21:12:52 2018
### 

@<TRIPOS>MOLECULE
1x70_ligand
   44    46     1     0     0
SMALL
GAST_HUCK


@<TRIPOS>ATOM
      1 C1         34.5880   50.5400   36.7400 C.ar      1 715        -0.0030
      2 C2         35.9160   51.0580   36.8040 C.ar      1 715         0.1274
      3 C3         37.0810   50.2570   36.5150 C.ar      1 715        -0.0094
      4 C4         36.8900   48.8840   36.1400 C.ar      1 715        -0.0298
      5 C5         35.5560   48.3630   36.0770 C.ar      1 715         0.1544
      6 C6         34.4320   49.1800   36.3660 C.ar      1 715         0.1560
      7 F9         35.3810   47.1130   35.7320 F         1 715        -0.1895
      8 F10        36.0680   52.3270   37.1540 F         1 715        -0.1934
      9 C11        38.4290   50.9030   36.6040 C.3       1 715         0.0243
     10 C12        39.0930   51.0760   35.2230 C.3       1 715         0.0010
     11 C15        40.3800   51.8310   35.4450 C.3       1 715         0.0821
     12 C16        41.5760   51.0710   36.1670 C.2       1 715         0.1872
     13 N19        42.7630   51.8390   36.4340 N.am      1 715        -0.2468
     14 N20        38.2030   51.8460   34.3530 N.4       1 715         0.2238
     15 O22        41.4170   49.8850   36.5130 O.2       1 715        -0.3964
     16 C25        42.9990   52.7410   35.2820 C.3       1 715         0.0661
     17 C26        44.1670   52.4110   34.3740 C.3       1 715         0.0880
     18 N27        45.3490   51.8910   35.1230 N.pl3     1 715        -0.1917
     19 C28        45.3110   51.1800   36.2900 C.2       1 715         0.1981
     20 C29        43.9160   50.8910   36.8830 C.3       1 715         0.1296
     21 C39        46.6690   51.9620   34.8650 C.2       1 715         0.2311
     22 N40        47.3490   51.3310   35.8410 N.2       1 715        -0.1834
     23 N41        46.5370   50.8670   36.6880 N.2       1 715        -0.1874
     24 C42        47.3330   52.6430   33.6640 C.3       1 715         0.4147
     25 F43        48.6230   52.4720   33.7700 F         1 715        -0.2246
     26 F44        47.0130   53.9300   33.7260 F         1 715        -0.2246
     27 F45        46.8880   52.0850   32.5320 F         1 715        -0.2246
     28 F46        33.2290   48.6840   36.2980 F         1 715        -0.1911
     29 H1         33.7302   51.1622   36.9686 H         1 715         0.0562
     30 H2         37.7400   48.2524   35.9085 H         1 715         0.0522
     31 H3         39.0795   50.2768   37.2322 H         1 715         0.0467
     32 H4         38.3154   51.8941   37.0674 H         1 715         0.0467
     33 H5         39.2998   50.0949   34.7705 H         1 715         0.0898
     34 H6         40.1398   52.7154   36.0534 H         1 715         0.0560
     35 H7         40.7450   52.1527   34.4584 H         1 715         0.0560
     36 H8         37.3466   51.3338   34.2107 H         1 715         0.2000
     37 H9         38.6532   52.0013   33.4646 H         1 715         0.2000
     38 H10        37.9962   52.7332   34.7845 H         1 715         0.2000
     39 H11        43.1656   53.7522   35.6817 H         1 715         0.0553
     40 H12        42.0882   52.7359   34.6652 H         1 715         0.0553
     41 H13        44.4643   53.3238   33.8369 H         1 715         0.0647
     42 H14        43.8455   51.6478   33.6500 H         1 715         0.0647
     43 H15        43.6369   49.8659   36.5979 H         1 715         0.0841
     44 H16        43.9973   50.9579   37.9779 H         1 715         0.0841
@<TRIPOS>BOND
     1    1    2 ar 
     2    1    6 ar 
     3    2    3 ar 
     4    2    8 1  
     5    3    4 ar 
     6    3    9 1  
     7    4    5 ar 
     8    5    6 ar 
     9    5    7 1  
    10    6   28 1  
    11    9   10 1  
    12   10   11 1  
    13   10   14 1  
    14   11   12 1  
    15   12   13 am 
    16   12   15 2  
    17   13   16 1  
    18   13   20 1  
    19   16   17 1  
    20   17   18 1  
    21   18   19 1  
    22   18   21 1  
    23   19   20 1  
    24   19   23 2  
    25   21   22 2  
    26   21   24 1  
    27   22   23 1  
    28   24   25 1  
    29   24   26 1  
    30   24   27 1  
    31    1   29 1  
    32    4   30 1  
    33    9   31 1  
    34    9   32 1  
    35   10   33 1  
    36   11   34 1  
    37   11   35 1  
    38   14   36 1  
    39   14   37 1  
    40   14   38 1  
    41   16   39 1  
    42   16   40 1  
    43   17   41 1  
    44   17   42 1  
    45   20   43 1  
    46   20   44 1  
@<TRIPOS>SUBSTRUCTURE
     1 715         1

