### 
### Created by X-TOOL on Mon Sep 10 21:12:53 2018
### 

@<TRIPOS>MOLECULE
1x76_ligand
   28    30     1     0     0
SMALL
GAST_HUCK


@<TRIPOS>ATOM
      1 C1         25.8800   35.9290   41.5540 C.ar      1 697         0.0900
      2 C2         27.1560   35.5320   42.0840 C.ar      1 697        -0.0309
      3 C3         28.3240   35.6420   41.2630 C.ar      1 697        -0.0582
      4 C4         28.1970   36.1480   39.9180 C.ar      1 697         0.0064
      5 C5         26.9120   36.5400   39.4040 C.ar      1 697        -0.0582
      6 C6         25.7500   36.4300   40.2220 C.ar      1 697        -0.0309
      7 O11        24.7570   35.8290   42.3360 O.3       1 697        -0.3315
      8 C12        29.3860   36.3070   39.0130 C.2       1 697         0.1181
      9 C13        30.5520   35.5080   39.0090 C.2       1 697        -0.0422
     10 C14        31.3230   36.1100   37.9800 C.ar      1 697        -0.0078
     11 C15        30.5610   37.2230   37.4440 C.ar      1 697         0.1489
     12 O16        29.3870   37.3000   38.1050 O.3       1 697        -0.2515
     13 C17        32.6150   35.8450   37.4170 C.ar      1 697        -0.0346
     14 C18        33.1160   36.6750   36.3540 C.ar      1 697         0.0838
     15 C19        32.3420   37.7650   35.8480 C.ar      1 697        -0.0075
     16 C20        31.0610   38.0210   36.4110 C.ar      1 697         0.1194
     17 O23        34.3510   36.4240   35.8170 O.3       1 697        -0.3384
     18 C7         30.2680   39.1090   35.9240 C.1       1 697         0.0906
     19 N27        29.6050   39.9850   35.5670 N.1       1 697        -0.3367
     20 H1         27.2333   35.1526   43.0965 H         1 697         0.0550
     21 H2         29.2937   35.3481   41.6482 H         1 697         0.0602
     22 H3         26.8272   36.9199   38.3923 H         1 697         0.0602
     23 H4         24.7794   36.7228   39.8384 H         1 697         0.0550
     24 H5         24.9956   35.4833   43.1881 H         1 697         0.2493
     25 H6         30.7962   34.6507   39.6346 H         1 697         0.0343
     26 H7         33.2125   35.0216   37.7913 H         1 697         0.0529
     27 H8         32.7254   38.3871   35.0474 H         1 697         0.0595
     28 H9         34.2602   36.2390   34.8895 H         1 697         0.2448
@<TRIPOS>BOND
     1    1    2 ar 
     2    1    6 ar 
     3    1    7 1  
     4    2    3 ar 
     5    3    4 ar 
     6    4    5 ar 
     7    4    8 1  
     8    5    6 ar 
     9    8    9 2  
    10    8   12 1  
    11    9   10 1  
    12   10   11 ar 
    13   10   13 ar 
    14   11   12 1  
    15   11   16 ar 
    16   13   14 ar 
    17   14   15 ar 
    18   14   17 1  
    19   15   16 ar 
    20   16   18 1  
    21   18   19 3  
    22    2   20 1  
    23    3   21 1  
    24    5   22 1  
    25    6   23 1  
    26    7   24 1  
    27    9   25 1  
    28   13   26 1  
    29   15   27 1  
    30   17   28 1  
@<TRIPOS>SUBSTRUCTURE
     1 697         1

