### 
### Created by X-TOOL on Mon Sep 10 21:12:53 2018
### 

@<TRIPOS>MOLECULE
1x78_ligand
   31    33     1     0     0
SMALL
GAST_HUCK


@<TRIPOS>ATOM
      1 C1         32.2650   36.7640   35.7030 C.ar      1 244        -0.0404
      2 C2         30.9230   36.9990   36.1130 C.ar      1 244         0.0081
      3 C3         30.4370   36.4310   37.3150 C.ar      1 244         0.1179
      4 C4         31.2870   35.6010   38.1510 C.ar      1 244        -0.0268
      5 C5         32.6300   35.3740   37.7260 C.ar      1 244        -0.0531
      6 C6         33.1120   35.9530   36.5100 C.ar      1 244         0.0641
      7 O9         29.2090   36.5180   37.9020 O.3       1 244        -0.2624
      8 C10        29.2700   35.7920   39.0470 C.2       1 244         0.1139
      9 C11        30.5270   35.1870   39.2750 C.2       1 244        -0.0470
     10 O12        34.3970   35.7390   36.1000 O.3       1 244        -0.3427
     11 C13        30.0230   37.8700   35.2370 C.3       1 244         0.1035
     12 C14        29.4930   39.0590   35.9520 C.1       1 244         0.1020
     13 N17        29.0470   39.9600   36.5260 N.1       1 244        -0.3012
     14 C18        28.0680   35.7120   39.9480 C.ar      1 244         0.0059
     15 C19        26.7950   36.1430   39.4230 C.ar      1 244        -0.0582
     16 C20        25.6260   36.1150   40.2410 C.ar      1 244        -0.0309
     17 C21        25.7220   35.6590   41.5840 C.ar      1 244         0.0900
     18 C22        26.9810   35.2230   42.1290 C.ar      1 244        -0.0309
     19 C23        28.1560   35.2500   41.3130 C.ar      1 244        -0.0582
     20 O28        24.5830   35.6430   42.3610 O.3       1 244        -0.3315
     21 H1         32.6395   37.1990   34.7835 H         1 244         0.0419
     22 H2         33.2890   34.7591   38.3282 H         1 244         0.0375
     23 H3         30.8360   34.5579   40.1085 H         1 244         0.0335
     24 H4         34.5463   36.1939   35.2794 H         1 244         0.2446
     25 H5         29.1743   37.2613   34.8920 H         1 244         0.0704
     26 H6         30.6048   38.2134   34.3690 H         1 244         0.0704
     27 H7         26.7260   36.4910   38.3987 H         1 244         0.0603
     28 H8         24.6719   36.4390   39.8412 H         1 244         0.0550
     29 H9         27.0387   34.8754   43.1541 H         1 244         0.0550
     30 H10        29.1077   34.9251   41.7177 H         1 244         0.0603
     31 H11        24.4101   34.7545   42.6492 H         1 244         0.2493
@<TRIPOS>BOND
     1    1    2 ar 
     2    1    6 ar 
     3    2    3 ar 
     4    2   11 1  
     5    3    4 ar 
     6    3    7 1  
     7    4    5 ar 
     8    4    9 1  
     9    5    6 ar 
    10    6   10 1  
    11    7    8 1  
    12    8    9 2  
    13    8   14 1  
    14   11   12 1  
    15   12   13 3  
    16   14   15 ar 
    17   14   19 ar 
    18   15   16 ar 
    19   16   17 ar 
    20   17   18 ar 
    21   17   20 1  
    22   18   19 ar 
    23    1   21 1  
    24    5   22 1  
    25    9   23 1  
    26   10   24 1  
    27   11   25 1  
    28   11   26 1  
    29   15   27 1  
    30   16   28 1  
    31   18   29 1  
    32   19   30 1  
    33   20   31 1  
@<TRIPOS>SUBSTRUCTURE
     1 244         1

