### 
### Created by X-TOOL on Mon Sep 10 21:12:53 2018
### 

@<TRIPOS>MOLECULE
1x7a_ligand
   55    59     1     0     0
SMALL
GAST_HUCK


@<TRIPOS>ATOM
      1 C1         68.2180   21.8850   55.0540 C.ar      1 187        -0.0600
      2 C2         69.5750   22.0490   55.2950 C.ar      1 187        -0.0619
      3 C3         70.4960   21.3420   54.4830 C.ar      1 187        -0.0186
      4 C4         70.1080   20.4600   53.4330 C.ar      1 187         0.1321
      5 C5         68.7010   20.2670   53.2810 C.ar      1 187        -0.0134
      6 C6         67.7790   20.9860   54.0740 C.ar      1 187         0.0259
      7 C20        66.3170   20.7180   53.9460 C.cat     1 187         0.2349
      8 N3         65.9870   19.6300   53.2470 N.pl3     1 187        -0.2722
      9 N4         65.3980   21.5270   54.5370 N.pl3     1 187        -0.2722
     10 N1         71.0810   19.9440   52.5050 N.pl3     1 187        -0.1088
     11 N6         71.2840   20.3780   51.2430 N.2       1 187        -0.1297
     12 N5         72.6570   17.0990   53.9260 N.am      1 187        -0.2343
     13 C7         72.5350   16.3800   55.1190 C.ar      1 187         0.0929
     14 C44        72.0670   15.0700   55.0340 C.ar      1 187         0.1477
     15 C14        72.0870   14.2370   56.1910 C.ar      1 187        -0.0077
     16 C16        72.5610   14.7690   57.4250 C.ar      1 187         0.0805
     17 N7         72.2500   14.1690   58.5750 N.pl3     1 187        -0.2017
     18 C18        73.0410   16.1010   57.5090 C.ar      1 187        -0.0454
     19 C22        73.0080   16.9030   56.3550 C.ar      1 187        -0.0467
     20 C9         72.8870   14.1850   59.7860 C.ar      1 187         0.0994
     21 C15        71.0500   13.5970   58.7040 C.2       1 187         0.1183
     22 C23        71.9570   13.4970   60.7320 C.ar      1 187         0.0361
     23 N2         70.8650   13.2190   59.9900 N.2       1 187        -0.3042
     24 C13        71.9350   18.9050   52.6960 C.2       1 187         0.2014
     25 C12        72.6850   18.6660   51.5070 C.2       1 187         0.0016
     26 C8         72.1190   18.2610   53.8770 C.2       1 187         0.2642
     27 C10        72.2150   19.6670   50.5860 C.2       1 187         0.1279
     28 O3         71.7160   18.8010   54.9010 O.2       1 187        -0.3721
     29 C11        72.5540   19.8830   49.1190 C.3       1 187         0.3867
     30 F1         71.8410   20.7270   48.4680 F         1 187        -0.2190
     31 F3         72.5910   18.8010   48.4440 F         1 187        -0.2190
     32 F2         73.6910   20.3970   49.1050 F         1 187        -0.2190
     33 C17        72.3030   13.1760   62.0600 C.ar      1 187        -0.0607
     34 C21        73.5740   13.5360   62.4820 C.ar      1 187        -0.0757
     35 C25        74.4560   14.2390   61.5940 C.ar      1 187        -0.0737
     36 C27        74.1330   14.5870   60.2480 C.ar      1 187        -0.0364
     37 F4         71.6510   14.6950   53.8540 F         1 187        -0.1952
     38 H1         67.4952   22.4550   55.6265 H         1 187         0.0586
     39 H2         69.9223   22.7032   56.0865 H         1 187         0.0609
     40 H3         71.5547   21.4796   54.6709 H         1 187         0.0619
     41 H4         68.3353   19.5586   52.5465 H         1 187         0.0618
     42 H5         64.9957   19.3823   53.1172 H         1 187         0.3181
     43 H6         66.7236   19.0380   52.8373 H         1 187         0.3181
     44 H7         65.7057   22.3556   55.0659 H         1 187         0.3181
     45 H8         64.3941   21.3113   54.4559 H         1 187         0.3181
     46 H9         73.1460   16.7204   53.1401 H         1 187         0.2219
     47 H10        71.7453   13.2099   56.1325 H         1 187         0.0523
     48 H11        73.4254   16.4925   58.4439 H         1 187         0.0506
     49 H12        73.3467   17.9314   56.4072 H         1 187         0.0475
     50 H13        70.3311   13.4565   57.8982 H         1 187         0.1360
     51 H14        73.4407   17.9009   51.3352 H         1 187         0.0557
     52 H15        71.6078   12.6711   62.7209 H         1 187         0.0557
     53 H16        73.9021   13.2860   63.4845 H         1 187         0.0526
     54 H17        75.4316   14.5244   61.9705 H         1 187         0.0545
     55 H18        74.8244   15.1364   59.6193 H         1 187         0.0558
@<TRIPOS>BOND
     1    2    1 ar 
     2    6    1 ar 
     3    3    2 ar 
     4    4    3 ar 
     5    4    5 ar 
     6   10    4 1  
     7    5    6 ar 
     8    6    7 1  
     9    7    8 ar 
    10    7    9 ar 
    11   10   11 1  
    12   24   10 1  
    13   11   27 2  
    14   12   13 1  
    15   26   12 am 
    16   13   14 ar 
    17   13   19 ar 
    18   14   15 ar 
    19   14   37 1  
    20   15   16 ar 
    21   16   17 1  
    22   18   16 ar 
    23   17   20 1  
    24   17   21 1  
    25   19   18 ar 
    26   20   22 ar 
    27   20   36 ar 
    28   21   23 2  
    29   23   22 1  
    30   22   33 ar 
    31   24   25 2  
    32   24   26 1  
    33   25   27 1  
    34   26   28 2  
    35   27   29 1  
    36   29   30 1  
    37   29   31 1  
    38   29   32 1  
    39   33   34 ar 
    40   34   35 ar 
    41   35   36 ar 
    42    1   38 1  
    43    2   39 1  
    44    3   40 1  
    45    5   41 1  
    46    8   42 1  
    47    8   43 1  
    48    9   44 1  
    49    9   45 1  
    50   12   46 1  
    51   15   47 1  
    52   18   48 1  
    53   19   49 1  
    54   21   50 1  
    55   25   51 1  
    56   33   52 1  
    57   34   53 1  
    58   35   54 1  
    59   36   55 1  
@<TRIPOS>SUBSTRUCTURE
     1 187         1

