### 
### Created by X-TOOL on Mon Sep 10 21:12:53 2018
### 

@<TRIPOS>MOLECULE
1x7b_ligand
   30    32     1     0     0
SMALL
GAST_HUCK


@<TRIPOS>ATOM
      1 C1         32.6400   37.6170   35.8010 C.ar      1 041        -0.0343
      2 C2         31.3210   37.9160   36.2740 C.ar      1 041         0.0037
      3 C3         30.8000   37.1700   37.3600 C.ar      1 041         0.1432
      4 C4         31.5580   36.1150   38.0040 C.ar      1 041         0.0393
      5 C5         32.8680   35.8300   37.5210 C.ar      1 041        -0.0307
      6 C6         33.4090   36.5770   36.4230 C.ar      1 041         0.0751
      7 O9         29.6100   37.2450   37.9950 O.3       1 041        -0.2264
      8 C10        29.5810   36.3170   38.9840 C.2       1 041         0.1933
      9 N11        30.7540   35.6090   39.0150 N.2       1 041        -0.2966
     10 C12        28.4060   36.1630   39.8870 C.ar      1 041         0.0344
     11 C13        28.5480   35.5620   41.1890 C.ar      1 041        -0.0538
     12 C14        27.4280   35.4370   42.0620 C.ar      1 041        -0.0272
     13 C15        26.1530   35.9250   41.6190 C.ar      1 041         0.1284
     14 C16        26.0230   36.5210   40.3230 C.ar      1 041         0.1663
     15 C17        27.1300   36.6450   39.4540 C.ar      1 041        -0.0165
     16 O21        34.6790   36.3130   35.9550 O.3       1 041        -0.3400
     17 F22        24.8090   36.9640   39.9610 F         1 041        -0.1884
     18 O23        25.0730   35.8110   42.4620 O.3       1 041        -0.3282
     19 C24        30.5070   38.9990   35.6340 C.2       1 041        -0.0672
     20 C25        29.6480   39.8330   36.2750 C.2       1 041        -0.1031
     21 H1         33.0577   38.1771   34.9722 H         1 041         0.0496
     22 H2         33.4568   35.0468   37.9846 H         1 041         0.0472
     23 H3         29.5187   35.2004   41.5086 H         1 041         0.0614
     24 H4         27.5370   34.9828   43.0402 H         1 041         0.0551
     25 H5         27.0148   37.0976   38.4758 H         1 041         0.0627
     26 H6         34.8758   36.8954   35.2307 H         1 041         0.2449
     27 H7         25.3465   35.3939   43.2706 H         1 041         0.2497
     28 H8         30.6138   39.1290   34.5581 H         1 041         0.0604
     29 H9         29.1026   40.5898   35.7131 H         1 041         0.0488
     30 H10        29.5045   39.7450   37.3509 H         1 041         0.0488
@<TRIPOS>BOND
     1    1    2 ar 
     2    1    6 ar 
     3    2    3 ar 
     4    2   19 1  
     5    3    4 ar 
     6    3    7 1  
     7    4    5 ar 
     8    4    9 1  
     9    5    6 ar 
    10    6   16 1  
    11    7    8 1  
    12    8    9 2  
    13    8   10 1  
    14   10   11 ar 
    15   10   15 ar 
    16   11   12 ar 
    17   12   13 ar 
    18   13   14 ar 
    19   13   18 1  
    20   14   15 ar 
    21   14   17 1  
    22   19   20 2  
    23    1   21 1  
    24    5   22 1  
    25   11   23 1  
    26   12   24 1  
    27   15   25 1  
    28   16   26 1  
    29   18   27 1  
    30   19   28 1  
    31   20   29 1  
    32   20   30 1  
@<TRIPOS>SUBSTRUCTURE
     1 041         1

