### 
### Created by X-TOOL on Mon Sep 10 21:12:53 2018
### 

@<TRIPOS>MOLECULE
1x7e_ligand
   31    33     1     0     0
SMALL
GAST_HUCK


@<TRIPOS>ATOM
      1 C1         23.7510   19.5780   26.0370 C.ar      1 244        -0.0404
      2 C2         24.1800   18.8920   24.8340 C.ar      1 244         0.0081
      3 C3         25.4350   19.2420   24.2230 C.ar      1 244         0.1179
      4 C4         26.2970   20.2860   24.7920 C.ar      1 244        -0.0268
      5 C5         25.8530   20.9610   25.9920 C.ar      1 244        -0.0531
      6 C6         24.5880   20.6100   26.6130 C.ar      1 244         0.0641
      7 O9         26.0430   18.7450   23.1120 O.3       1 244        -0.2624
      8 C10        27.2080   19.4080   22.9630 C.2       1 244         0.1139
      9 C11        27.4370   20.3890   23.9720 C.2       1 244        -0.0470
     10 O12        24.1640   21.2530   27.7500 O.3       1 244        -0.3427
     11 C13        23.2770   17.8010   24.2280 C.3       1 244         0.1035
     12 C14        23.9710   16.5070   23.9890 C.1       1 244         0.1020
     13 N17        24.5630   15.5320   23.8230 N.1       1 244        -0.3012
     14 C18        28.1190   19.0820   21.7990 C.ar      1 244         0.0059
     15 C19        27.5770   18.2830   20.7020 C.ar      1 244        -0.0582
     16 C20        28.3860   17.9570   19.5580 C.ar      1 244        -0.0309
     17 C21        29.7410   18.4300   19.5040 C.ar      1 244         0.0900
     18 C22        30.3120   19.2210   20.5820 C.ar      1 244        -0.0309
     19 C23        29.5070   19.5480   21.7270 C.ar      1 244        -0.0582
     20 O28        30.4990   18.1240   18.4110 O.3       1 244        -0.3315
     21 H1         22.8073   19.3195   26.5036 H         1 244         0.0419
     22 H2         26.4703   21.7360   26.4318 H         1 244         0.0375
     23 H3         28.2894   21.0577   24.0821 H         1 244         0.0335
     24 H4         23.3232   20.9004   28.0170 H         1 244         0.2446
     25 H5         22.8882   18.1680   23.2667 H         1 244         0.0704
     26 H6         22.4393   17.6222   24.9181 H         1 244         0.0704
     27 H7         26.5527   17.9316   20.7509 H         1 244         0.0603
     28 H8         27.9786   17.3627   18.7481 H         1 244         0.0550
     29 H9         31.3392   19.5623   20.5225 H         1 244         0.0550
     30 H10        29.9251   20.1375   22.5349 H         1 244         0.0603
     31 H11        30.7788   18.9264   17.9863 H         1 244         0.2493
@<TRIPOS>BOND
     1    1    2 ar 
     2    1    6 ar 
     3    2    3 ar 
     4    2   11 1  
     5    3    4 ar 
     6    3    7 1  
     7    4    5 ar 
     8    4    9 1  
     9    5    6 ar 
    10    6   10 1  
    11    7    8 1  
    12    8    9 2  
    13    8   14 1  
    14   11   12 1  
    15   12   13 3  
    16   14   15 ar 
    17   14   19 ar 
    18   15   16 ar 
    19   16   17 ar 
    20   17   18 ar 
    21   17   20 1  
    22   18   19 ar 
    23    1   21 1  
    24    5   22 1  
    25    9   23 1  
    26   10   24 1  
    27   11   25 1  
    28   11   26 1  
    29   15   27 1  
    30   16   28 1  
    31   18   29 1  
    32   19   30 1  
    33   20   31 1  
@<TRIPOS>SUBSTRUCTURE
     1 244         1

