### 
### Created by X-TOOL on Mon Sep 10 21:12:53 2018
### 

@<TRIPOS>MOLECULE
1x7r_ligand
   30    32     1     0     0
SMALL
GAST_HUCK


@<TRIPOS>ATOM
      1 C1         17.1540   31.9200   25.8150 C.ar      1 GEN        -0.0021
      2 C2         17.7070   33.1970   26.1030 C.ar      1 GEN         0.0780
      3 O2         18.2780   33.3320   27.3670 O.3       1 GEN        -0.3349
      4 C3         17.7040   34.3040   25.1930 C.ar      1 GEN        -0.0082
      5 C4         17.1140   34.1500   23.8990 C.ar      1 GEN         0.0942
      6 O4         17.0820   35.1890   22.9880 O.3       1 GEN        -0.3324
      7 C5         16.5400   32.8450   23.5790 C.ar      1 GEN         0.0811
      8 C6         15.9120   32.6250   22.2390 C.2       1 GEN         0.1145
      9 O6         15.8430   33.4840   21.3710 O.2       1 GEN        -0.4182
     10 C7         15.3580   31.2140   22.0270 C.2       1 GEN         0.0480
     11 C8         15.4410   30.2340   23.0300 C.2       1 GEN         0.1185
     12 O9         16.0360   30.4740   24.2960 O.3       1 GEN        -0.2397
     13 C10        16.5550   31.7350   24.5220 C.ar      1 GEN         0.1339
     14 C11        14.6820   30.7120   20.7190 C.ar      1 GEN        -0.0380
     15 C12        15.2530   31.1030   19.4560 C.ar      1 GEN        -0.0703
     16 C13        14.6080   30.5730   18.2940 C.ar      1 GEN        -0.0379
     17 C14        13.5010   29.7340   18.4320 C.ar      1 GEN         0.0833
     18 O14        12.9460   29.2580   17.2410 O.3       1 GEN        -0.3358
     19 C15        12.8950   29.3240   19.6740 C.ar      1 GEN        -0.0379
     20 C16        13.5350   29.8510   20.8720 C.ar      1 GEN        -0.0703
     21 H1         17.1829   31.1168   26.5424 H         1 GEN         0.0405
     22 H2         18.6186   34.2132   27.4669 H         1 GEN         0.2494
     23 H3         18.1454   35.2507   25.4829 H         1 GEN         0.0405
     24 H4         16.6533   34.8976   22.1919 H         1 GEN         0.2504
     25 H5         15.0305   29.2460   22.8271 H         1 GEN         0.1311
     26 H6         16.1154   31.7564   19.3900 H         1 GEN         0.0543
     27 H7         14.9790   30.8230   17.3066 H         1 GEN         0.0533
     28 H8         12.2034   28.6998   17.4398 H         1 GEN         0.2470
     29 H9         12.0290   28.6731   19.7136 H         1 GEN         0.0533
     30 H10        13.1574   29.6014   21.8570 H         1 GEN         0.0543
@<TRIPOS>BOND
     1    1    2 ar 
     2    1   13 ar 
     3    2    3 1  
     4    2    4 ar 
     5    4    5 ar 
     6    5    6 1  
     7    5    7 ar 
     8    7    8 1  
     9    7   13 ar 
    10    8    9 2  
    11    8   10 1  
    12   10   11 2  
    13   10   14 1  
    14   11   12 1  
    15   12   13 1  
    16   14   15 ar 
    17   14   20 ar 
    18   15   16 ar 
    19   16   17 ar 
    20   17   18 1  
    21   17   19 ar 
    22   19   20 ar 
    23    1   21 1  
    24    3   22 1  
    25    4   23 1  
    26    6   24 1  
    27   11   25 1  
    28   15   26 1  
    29   16   27 1  
    30   18   28 1  
    31   19   29 1  
    32   20   30 1  
@<TRIPOS>SUBSTRUCTURE
     1 GEN         1

