### 
### Created by X-TOOL on Mon Sep 10 21:12:52 2018
### 

@<TRIPOS>MOLECULE
1x81_ligand
   57    61     1     0     0
SMALL
GAST_HUCK


@<TRIPOS>ATOM
      1 C1         51.5410   44.5160   -0.5580 C.3       1 JAN         0.0500
      2 N1         51.3260   45.2670   -1.7800 N.pl3     1 JAN        -0.2446
      3 C2         51.6250   44.8100   -3.0300 C.2       1 JAN         0.1253
      4 N2         51.3400   45.6300   -4.0050 N.2       1 JAN        -0.2793
      5 C3         50.8100   46.7230   -3.3830 C.2       1 JAN         0.0129
      6 C4         50.7670   46.5350   -2.0130 C.2       1 JAN         0.0600
      7 C5         50.2870   47.4180   -0.8210 C.3       1 JAN         0.0007
      8 C6         51.5020   47.7410    0.1710 C.ar      1 JAN        -0.0532
      9 C7         52.8180   48.1590   -0.3160 C.ar      1 JAN        -0.0582
     10 C8         53.8970   48.4250    0.5960 C.ar      1 JAN        -0.0340
     11 C9         53.6760   48.3460    1.9980 C.ar      1 JAN         0.0559
     12 CL1        54.9500   48.6960    3.0650 Cl        1 JAN        -0.0563
     13 C10        52.3950   47.9350    2.5030 C.ar      1 JAN        -0.0340
     14 C11        51.3390   47.6640    1.6120 C.ar      1 JAN        -0.0582
     15 N3         49.2200   46.6040   -0.1510 N.4       1 JAN         0.1173
     16 C12        49.7090   48.7410   -1.4140 C.ar      1 JAN        -0.0565
     17 C13        50.3200   49.9780   -1.1790 C.ar      1 JAN        -0.0509
     18 C14        49.8670   51.2050   -1.6710 C.ar      1 JAN         0.0379
     19 C15        48.4970   48.7410   -2.1990 C.ar      1 JAN        -0.0626
     20 C16        47.9540   49.9320   -2.7740 C.ar      1 JAN        -0.0136
     21 C17        48.5400   51.1900   -2.5180 C.ar      1 JAN         0.1136
     22 N4         48.0720   52.4010   -3.0620 N.am      1 JAN        -0.2048
     23 C18        46.8360   52.3850   -3.8840 C.3       1 JAN         0.0550
     24 C19        48.7240   53.6590   -2.7900 C.2       1 JAN         0.2185
     25 O1         48.2980   54.7250   -3.2510 O.2       1 JAN        -0.3957
     26 C20        49.8960   53.6500   -2.0050 C.2       1 JAN         0.0165
     27 C21        50.4750   52.4610   -1.4430 C.2       1 JAN         0.0030
     28 C22        51.7150   52.6450   -0.6430 C.ar      1 JAN        -0.0096
     29 C23        52.8940   51.9350   -0.9720 C.ar      1 JAN        -0.0362
     30 C24        54.1110   52.1220   -0.2140 C.ar      1 JAN         0.0438
     31 CL2        55.5220   51.2860   -0.6240 Cl        1 JAN        -0.0700
     32 C25        54.1170   53.0090    0.9320 C.ar      1 JAN        -0.0453
     33 C26        52.9040   53.7230    1.2670 C.ar      1 JAN        -0.0579
     34 C27        51.7070   53.5280    0.4820 C.ar      1 JAN        -0.0501
     35 H1         52.0111   43.5511   -0.7986 H         1 JAN         0.0589
     36 H2         50.5755   44.3397   -0.0613 H         1 JAN         0.0589
     37 H3         52.1995   45.0876    0.1126 H         1 JAN         0.0589
     38 H4         52.0697   43.8310   -3.2023 H         1 JAN         0.1456
     39 H5         50.4675   47.6209   -3.8953 H         1 JAN         0.0842
     40 H6         52.9814   48.2697   -1.3819 H         1 JAN         0.0723
     41 H7         54.8779   48.6855    0.2150 H         1 JAN         0.0662
     42 H8         52.2415   47.8335    3.5713 H         1 JAN         0.0662
     43 H9         50.3713   47.3885    2.0154 H         1 JAN         0.0723
     44 H10        49.6253   45.7589    0.2200 H         1 JAN         0.1925
     45 H11        48.5063   46.3676   -0.8224 H         1 JAN         0.1925
     46 H12        48.8114   47.1383    0.5997 H         1 JAN         0.1925
     47 H13        51.2149   49.9848   -0.5673 H         1 JAN         0.0747
     48 H14        47.9791   47.8021   -2.3584 H         1 JAN         0.0722
     49 H15        47.0817   49.8679   -3.4143 H         1 JAN         0.0593
     50 H16        46.4785   51.3500   -3.9885 H         1 JAN         0.0588
     51 H17        47.0521   52.8004   -4.8793 H         1 JAN         0.0588
     52 H18        46.0614   52.9926   -3.3933 H         1 JAN         0.0588
     53 H19        50.3914   54.6007   -1.8135 H         1 JAN         0.0596
     54 H20        52.8846   51.2408   -1.8045 H         1 JAN         0.0654
     55 H21        55.0140   53.1353    1.5274 H         1 JAN         0.0644
     56 H22        52.8933   54.4058    2.1089 H         1 JAN         0.0625
     57 H23        50.7972   54.0542    0.7473 H         1 JAN         0.0649
@<TRIPOS>BOND
     1    1    2 1  
     2    2    3 1  
     3    2    6 1  
     4    3    4 2  
     5    4    5 1  
     6    5    6 2  
     7    6    7 1  
     8    7    8 1  
     9    7   15 1  
    10    7   16 1  
    11    8    9 ar 
    12    8   14 ar 
    13    9   10 ar 
    14   10   11 ar 
    15   11   12 1  
    16   11   13 ar 
    17   13   14 ar 
    18   16   17 ar 
    19   16   19 ar 
    20   17   18 ar 
    21   18   21 ar 
    22   18   27 1  
    23   19   20 ar 
    24   20   21 ar 
    25   21   22 1  
    26   22   23 1  
    27   22   24 am 
    28   24   25 2  
    29   24   26 1  
    30   26   27 2  
    31   27   28 1  
    32   28   29 ar 
    33   28   34 ar 
    34   29   30 ar 
    35   30   31 1  
    36   30   32 ar 
    37   32   33 ar 
    38   33   34 ar 
    39    1   35 1  
    40    1   36 1  
    41    1   37 1  
    42    3   38 1  
    43    5   39 1  
    44    9   40 1  
    45   10   41 1  
    46   13   42 1  
    47   14   43 1  
    48   15   44 1  
    49   15   45 1  
    50   15   46 1  
    51   17   47 1  
    52   19   48 1  
    53   20   49 1  
    54   23   50 1  
    55   23   51 1  
    56   23   52 1  
    57   26   53 1  
    58   29   54 1  
    59   32   55 1  
    60   33   56 1  
    61   34   57 1  
@<TRIPOS>SUBSTRUCTURE
     1 JAN         1

