### 
### Created by X-TOOL on Mon Sep 10 21:12:53 2018
### 

@<TRIPOS>MOLECULE
1x8b_ligand
   37    41     1     0     0
SMALL
GAST_HUCK


@<TRIPOS>ATOM
      1 O3          8.1890   55.6520   21.9340 O.2       1 824        -0.4044
      2 C19         7.0210   55.2620   22.4050 C.2       1 824         0.1119
      3 C20         6.0450   54.8660   21.4330 C.2       1 824        -0.0151
      4 C18         4.7660   54.3890   21.7500 C.2       1 824        -0.0251
      5 C16         4.4030   54.3550   23.1030 C.2       1 824         0.0756
      6 C15         5.3970   54.7470   24.0960 C.2       1 824         0.0046
      7 C17         6.7120   55.1830   23.7850 C.3       1 824         0.0457
      8 C13         4.6770   54.5540   25.3490 C.ar      1 824         0.0212
      9 C14         3.3430   54.0300   25.0930 C.ar      1 824         0.0759
     10 N2          3.2710   53.9340   23.7350 N.pl3     1 824        -0.2737
     11 C4          5.0330   54.7570   26.7210 C.ar      1 824         0.0665
     12 C5          6.2490   55.1870   27.3920 C.2       1 824         0.2327
     13 O1          7.2990   55.6250   26.8410 O.2       1 824        -0.3687
     14 C3          4.0930   54.4410   27.7600 C.ar      1 824         0.0667
     15 C6          4.8590   54.7810   28.9710 C.2       1 824         0.2302
     16 O2          4.3970   54.6230   30.1430 O.2       1 824        -0.3712
     17 N1          6.1320   55.1840   28.7310 N.am      1 824        -0.2009
     18 C2          2.7320   53.9900   27.4820 C.ar      1 824        -0.0050
     19 C1          2.3990   53.7790   26.1090 C.ar      1 824        -0.0234
     20 C7          1.7480   53.6900   28.5320 C.ar      1 824        -0.0183
     21 C8          1.4460   54.6840   29.4920 C.ar      1 824        -0.0541
     22 C9          0.4900   54.4330   30.5090 C.ar      1 824        -0.0612
     23 C10        -0.2190   53.2380   30.4250 C.ar      1 824        -0.0618
     24 C11         0.0330   52.3000   29.4530 C.ar      1 824        -0.0612
     25 C12         1.0200   52.5030   28.4650 C.ar      1 824        -0.0541
     26 H1          6.3146   54.9406   20.3805 H         1 824         0.0560
     27 H2          4.0791   54.0568   20.9730 H         1 824         0.0735
     28 H3          6.8482   56.1841   24.2200 H         1 824         0.0634
     29 H4          7.4199   54.4815   24.2506 H         1 824         0.0634
     30 H5          2.4431   53.5785   23.2359 H         1 824         0.2202
     31 H6          6.8311   55.4261   29.4038 H         1 824         0.2210
     32 H7          1.4099   53.4221   25.8458 H         1 824         0.0599
     33 H8          1.9484   55.6436   29.4501 H         1 824         0.0623
     34 H9          0.3194   55.1386   31.3140 H         1 824         0.0618
     35 H10        -0.9979   53.0403   31.1525 H         1 824         0.0617
     36 H11        -0.5411   51.3805   29.4449 H         1 824         0.0618
     37 H12         1.2038   51.7689   27.6889 H         1 824         0.0623
@<TRIPOS>BOND
     1    1    2 2  
     2    2    3 1  
     3    2    7 1  
     4    3    4 2  
     5    4    5 1  
     6    5    6 2  
     7    5   10 1  
     8    6    7 1  
     9    6    8 1  
    10    8    9 ar 
    11    8   11 ar 
    12    9   10 1  
    13    9   19 ar 
    14   11   12 1  
    15   11   14 ar 
    16   12   13 2  
    17   12   17 am 
    18   14   15 1  
    19   14   18 ar 
    20   15   16 2  
    21   15   17 am 
    22   18   19 ar 
    23   18   20 1  
    24   20   21 ar 
    25   20   25 ar 
    26   21   22 ar 
    27   22   23 ar 
    28   23   24 ar 
    29   24   25 ar 
    30    3   26 1  
    31    4   27 1  
    32    7   28 1  
    33    7   29 1  
    34   10   30 1  
    35   17   31 1  
    36   19   32 1  
    37   21   33 1  
    38   22   34 1  
    39   23   35 1  
    40   24   36 1  
    41   25   37 1  
@<TRIPOS>SUBSTRUCTURE
     1 824         1

