### 
### Created by X-TOOL on Mon Sep 10 21:12:53 2018
### 

@<TRIPOS>MOLECULE
1x8d_ligand
   21    21     1     0     0
SMALL
GAST_HUCK


@<TRIPOS>ATOM
      1 C1         11.2370   31.7770   10.2980 C.2       1 RNS         0.2659
      2 C2         12.1450   31.8480    9.0710 C.3       1 RNS         0.1832
      3 C3         11.3990   31.2440    7.8730 C.3       1 RNS         0.1279
      4 C4         10.0740   31.9830    7.6650 C.3       1 RNS         0.1159
      5 C5          9.2610   31.9360    8.9670 C.3       1 RNS         0.1133
      6 C6          7.9470   32.6880    8.8920 C.3       1 RNS        -0.0317
      7 O1         11.8730   32.3340   11.3890 O.2       1 RNS        -0.3674
      8 O2         12.4920   33.2080    8.8100 O.3       1 RNS        -0.3674
      9 O3         12.1910   31.3340    6.6960 O.3       1 RNS        -0.3840
     10 O4          9.3550   31.3560    6.6090 O.3       1 RNS        -0.3861
     11 O5         10.0260   32.5060   10.0530 O.3       1 RNS        -0.2691
     12 H1         13.0624   31.2707    9.2582 H         1 RNS         0.0881
     13 H2         11.1900   30.1842    8.0809 H         1 RNS         0.0673
     14 H3         10.2738   33.0312    7.3981 H         1 RNS         0.0651
     15 H4          9.0453   30.8813    9.1929 H         1 RNS         0.0674
     16 H5          7.4241   32.6095    9.8566 H         1 RNS         0.0259
     17 H6          7.3206   32.2536    8.0990 H         1 RNS         0.0259
     18 H7          8.1427   33.7466    8.6662 H         1 RNS         0.0259
     19 H8         12.9522   33.5658    9.5602 H         1 RNS         0.2136
     20 H9         11.7222   30.9407    5.9694 H         1 RNS         0.2102
     21 H10         9.1865   30.4492    6.8369 H         1 RNS         0.2100
@<TRIPOS>BOND
     1    1    2 1  
     2    1    7 2  
     3    1   11 1  
     4    2    3 1  
     5    2    8 1  
     6    3    4 1  
     7    3    9 1  
     8    4    5 1  
     9    4   10 1  
    10    5    6 1  
    11    5   11 1  
    12    2   12 1  
    13    3   13 1  
    14    4   14 1  
    15    5   15 1  
    16    6   16 1  
    17    6   17 1  
    18    6   18 1  
    19    8   19 1  
    20    9   20 1  
    21   10   21 1  
@<TRIPOS>SUBSTRUCTURE
     1 RNS         1

