### 
### Created by X-TOOL on Mon Sep 10 21:12:53 2018
### 

@<TRIPOS>MOLECULE
1x8j_ligand
   51    54     1     0     0
SMALL
GAST_HUCK


@<TRIPOS>ATOM
      1 C1         22.9800   -7.5390   41.0900 C.3       1 AOI        -0.0448
      2 C2         24.3850   -8.1060   40.7770 C.3       1 AOI        -0.0263
      3 C3         25.0090   -8.7760   42.0230 C.3       1 AOI         0.0555
      4 O3         25.3520   -7.7130   42.9430 O.3       1 AOI        -0.3918
      5 C4         24.0890   -9.7800   42.6710 C.3       1 AOI        -0.0235
      6 C5         22.6790   -9.2060   42.9830 C.3       1 AOI        -0.0330
      7 C6         21.7460  -10.2660   43.6460 C.3       1 AOI        -0.0494
      8 C7         20.3830   -9.6810   43.9470 C.3       1 AOI        -0.0496
      9 C8         19.6740   -9.0990   42.6990 C.3       1 AOI        -0.0353
     10 C9         20.5900   -8.0130   42.0410 C.3       1 AOI        -0.0326
     11 C10        22.0060   -8.6220   41.6670 C.3       1 AOI        -0.0260
     12 C11        19.8580   -7.4110   40.7930 C.3       1 AOI        -0.0500
     13 C12        18.4480   -6.8110   41.1350 C.3       1 AOI        -0.0423
     14 C13        17.5610   -7.8710   41.8020 C.3       1 AOI         0.0350
     15 C14        18.3140   -8.4700   43.0420 C.3       1 AOI        -0.0257
     16 C15        17.1990   -9.3050   43.7140 C.3       1 AOI        -0.0351
     17 C16        16.0410   -8.3040   43.7020 C.3       1 AOI         0.0229
     18 C17        16.2940   -7.3780   42.5030 C.2       1 AOI         0.1328
     19 O17        15.6040   -6.4500   42.2020 O.2       1 AOI        -0.3322
     20 C18        17.0970   -8.9470   40.7530 C.3       1 AOI        -0.0545
     21 C19        21.8310   -9.7350   40.5690 C.3       1 AOI        -0.0590
     22 H1         22.5483   -7.1361   40.1620 H         1 AOI         0.0271
     23 H2         23.0834   -6.7298   41.8279 H         1 AOI         0.0271
     24 H3         25.0378   -7.2846   40.4468 H         1 AOI         0.0290
     25 H4         24.2997   -8.8523   39.9734 H         1 AOI         0.0290
     26 H5         25.9265   -9.3021   41.7208 H         1 AOI         0.0593
     27 H6         25.7404   -8.0861   43.7257 H         1 AOI         0.2098
     28 H7         24.5461  -10.1158   43.6135 H         1 AOI         0.0293
     29 H8         23.9747  -10.6383   41.9926 H         1 AOI         0.0293
     30 H9         22.8058   -8.3783   43.6963 H         1 AOI         0.0307
     31 H10        22.2041  -10.6106   44.5848 H         1 AOI         0.0268
     32 H11        21.6275  -11.1186   42.9612 H         1 AOI         0.0268
     33 H12        20.5048   -8.8755   44.6861 H         1 AOI         0.0268
     34 H13        19.7489  -10.4740   44.3700 H         1 AOI         0.0268
     35 H14        19.5097   -9.9148   41.9797 H         1 AOI         0.0305
     36 H15        20.7510   -7.2042   42.7690 H         1 AOI         0.0309
     37 H16        19.7274   -8.2077   40.0459 H         1 AOI         0.0267
     38 H17        20.4853   -6.6119   40.3711 H         1 AOI         0.0267
     39 H18        17.9662   -6.4670   40.2079 H         1 AOI         0.0255
     40 H19        18.5732   -5.9601   41.8207 H         1 AOI         0.0255
     41 H20        18.5549   -7.6471   43.7310 H         1 AOI         0.0294
     42 H21        17.4727   -9.5945   44.7393 H         1 AOI         0.0291
     43 H22        16.9607  -10.2061   43.1298 H         1 AOI         0.0291
     44 H23        16.0275   -7.7240   44.6366 H         1 AOI         0.0487
     45 H24        15.0823   -8.8300   43.5829 H         1 AOI         0.0487
     46 H25        16.5805   -8.4479   39.9198 H         1 AOI         0.0219
     47 H26        16.4110   -9.6583   41.2362 H         1 AOI         0.0219
     48 H27        17.9749   -9.4873   40.3691 H         1 AOI         0.0219
     49 H28        22.8148  -10.1548   40.3124 H         1 AOI         0.0235
     50 H29        21.3745   -9.2949   39.6702 H         1 AOI         0.0235
     51 H30        21.1815  -10.5336   40.9567 H         1 AOI         0.0235
@<TRIPOS>BOND
     1    1    2 1  
     2    1   11 1  
     3    2    3 1  
     4    3    4 1  
     5    3    5 1  
     6    5    6 1  
     7    6    7 1  
     8   11    6 1  
     9    7    8 1  
    10    8    9 1  
    11    9   10 1  
    12    9   15 1  
    13   10   11 1  
    14   10   12 1  
    15   11   21 1  
    16   12   13 1  
    17   13   14 1  
    18   15   14 1  
    19   14   18 1  
    20   14   20 1  
    21   15   16 1  
    22   16   17 1  
    23   17   18 1  
    24   18   19 2  
    25    1   22 1  
    26    1   23 1  
    27    2   24 1  
    28    2   25 1  
    29    3   26 1  
    30    4   27 1  
    31    5   28 1  
    32    5   29 1  
    33    6   30 1  
    34    7   31 1  
    35    7   32 1  
    36    8   33 1  
    37    8   34 1  
    38    9   35 1  
    39   10   36 1  
    40   12   37 1  
    41   12   38 1  
    42   13   39 1  
    43   13   40 1  
    44   15   41 1  
    45   16   42 1  
    46   16   43 1  
    47   17   44 1  
    48   17   45 1  
    49   20   46 1  
    50   20   47 1  
    51   20   48 1  
    52   21   49 1  
    53   21   50 1  
    54   21   51 1  
@<TRIPOS>SUBSTRUCTURE
     1 AOI         1

