### 
### Created by X-TOOL on Mon Sep 10 21:12:52 2018
### 

@<TRIPOS>MOLECULE
1xa5_ligand
  117   126     1     0     0
SMALL
GAST_HUCK


@<TRIPOS>ATOM
      1 O1         15.8330   20.1650  134.2160 O.2       1 KAR        -0.3632
      2 C11        15.8480   21.2100  133.5760 C.2       1 KAR         0.1785
      3 O2         16.9700   21.9090  133.4280 O.3       1 KAR        -0.2989
      4 C9         18.1020   21.0330  133.4940 C.3       1 KAR         0.0630
      5 C10        14.5620   21.7710  132.8940 C.3       1 KAR         0.0468
      6 C12        14.3860   23.2930  133.2240 C.ar      1 KAR        -0.0301
      7 C14        14.0320   24.1620  132.1870 C.ar      1 KAR        -0.0460
      8 C15        13.8370   25.5170  132.4480 C.ar      1 KAR        -0.0163
      9 C18        14.5460   23.8590  134.5140 C.ar      1 KAR         0.1184
     10 O19        14.8950   23.0430  135.5930 O.3       1 KAR        -0.2932
     11 C20        16.2500   23.1000  136.0700 C.3       1 KAR         0.0710
     12 C17        14.3650   25.2390  134.7530 C.ar      1 KAR         0.0304
     13 C16        14.0180   26.0710  133.6900 C.ar      1 KAR         0.0786
     14 N24        13.7950   27.4100  133.6410 N.pl3     1 KAR        -0.2910
     15 C25        13.9130   28.2930  134.8000 C.3       1 KAR         0.0260
     16 C22        13.7450   27.8950  132.2520 C.3       1 KAR         0.0656
     17 C21        13.5200   26.5800  131.4840 C.3       1 KAR         0.0120
     18 C23        12.0040   26.3710  131.7410 C.3       1 KAR        -0.0352
     19 C27        13.5200   26.4960  129.9550 C.3       1 KAR        -0.0756
     20 N30        12.2540   27.2020  129.6250 N.4       1 KAR         0.2507
     21 C34        11.6990   27.0220  128.2890 C.3       1 KAR         0.0404
     22 C31        11.2760   27.2390  130.7210 C.3       1 KAR        -0.0395
     23 C29        14.6540   27.2720  129.2570 C.3       1 KAR        -0.0330
     24 C32        14.1040   27.6550  127.8770 C.2       1 KAR        -0.0757
     25 C33        12.8160   27.5450  127.4500 C.2       1 KAR         0.0287
     26 C35        15.7850   26.2120  128.9430 C.3       1 KAR        -0.0875
     27 C36        17.2780   26.5710  129.2090 C.3       1 KAR        -0.0763
     28 C26        15.0670   28.5360  131.7100 C.3       1 KAR         0.1865
     29 C83        16.2930   27.8740  132.1490 C.2       1 KAR         0.2651
     30 O4         16.6610   26.7170  132.0110 O.2       1 KAR        -0.3300
     31 C28        15.1070   28.5310  130.1220 C.3       1 KAR        -0.0422
     32 O61        15.1620   29.9000  132.1630 O.3       1 KAR        -0.2464
     33 C24        16.3400   30.0760  132.8210 C.2       1 KAR         0.3530
     34 O3         16.7020   31.1230  133.3150 O.2       1 KAR        -0.3676
     35 N85        17.0330   28.9170  132.8420 N.am      1 KAR        -0.1562
     36 C19        18.3310   28.7540  133.4660 C.3       1 KAR         0.0741
     37 C30        18.1960   28.9630  134.9870 C.3       1 KAR         0.0475
     38 CL1        17.6660   27.4450  135.7160 Cl        1 KAR        -0.1229
     39 C13        13.3440   21.1630  133.6630 C.3       1 KAR        -0.0842
     40 C41        11.9410   21.8480  133.5680 C.3       1 KAR        -0.0132
     41 C91        11.4450   22.1080  132.1120 C.3       1 KAR        -0.0301
     42 C92        10.8290   21.1220  134.4030 C.3       1 KAR        -0.0129
     43 C46        10.1560   19.9100  133.6990 C.3       1 KAR         0.1056
     44 O10        11.0880   18.8230  133.5220 O.3       1 KAR        -0.3833
     45 C94         9.0720   19.2190  134.5980 C.3       1 KAR        -0.0218
     46 C45         7.7270   19.9780  134.7960 C.3       1 KAR        -0.0625
     47 C95         9.5860   20.4140  132.3500 C.3       1 KAR        -0.0021
     48 N48        10.6530   21.0010  131.5090 N.4       1 KAR         0.2396
     49 C90        11.2290   20.0990  130.4890 C.3       1 KAR        -0.0170
     50 C89        12.7240   19.7280  130.6810 C.3       1 KAR         0.0373
     51 C7         13.9240   20.6730  130.5910 C.2       1 KAR         0.0083
     52 C3         14.5070   20.8130  129.2100 C.ar      1 KAR         0.0327
     53 C4         15.5500   21.6990  129.3810 C.ar      1 KAR         0.0843
     54 C5         16.3640   22.0930  128.3130 C.ar      1 KAR        -0.0266
     55 N9         15.6010   22.0650  130.6740 N.pl3     1 KAR        -0.2831
     56 C8         14.6530   21.4860  131.3930 C.2       1 KAR         0.0154
     57 C2         14.2150   20.2580  127.9600 C.ar      1 KAR        -0.0502
     58 C1         15.0210   20.6370  126.8780 C.ar      1 KAR        -0.0619
     59 C6         16.0800   21.5400  127.0550 C.ar      1 KAR        -0.0612
     60 H1         19.0256   21.6176  133.3709 H         1 KAR         0.0575
     61 H2         18.0329   20.2834  132.6919 H         1 KAR         0.0575
     62 H3         18.1166   20.5256  134.4698 H         1 KAR         0.0575
     63 H4         13.9092   23.7813  131.1795 H         1 KAR         0.0951
     64 H5         16.3704   22.4071  136.9158 H         1 KAR         0.0602
     65 H6         16.4800   24.1240  136.3994 H         1 KAR         0.0602
     66 H7         16.9363   22.8125  135.2599 H         1 KAR         0.0602
     67 H8         14.4942   25.6456  135.7495 H         1 KAR         0.0551
     68 H9         13.9294   27.6902  135.7200 H         1 KAR         0.0507
     69 H10        13.0540   28.9796  134.8269 H         1 KAR         0.0507
     70 H11        14.8443   28.8736  134.7254 H         1 KAR         0.0507
     71 H12        12.9143   28.6038  132.1194 H         1 KAR         0.0471
     72 H13        11.7438   26.6840  132.7629 H         1 KAR         0.0193
     73 H14        11.7359   25.3133  131.6020 H         1 KAR         0.0193
     74 H15        13.5220   25.4485  129.6194 H         1 KAR         0.0563
     75 H16        12.5613   28.1612  129.5848 H         1 KAR         0.2052
     76 H17        10.7792   27.6091  128.1502 H         1 KAR         0.1258
     77 H18        11.4937   25.9627  128.0751 H         1 KAR         0.1258
     78 H19        11.1158   28.2617  131.0930 H         1 KAR         0.0804
     79 H20        10.3114   26.8014  130.4245 H         1 KAR         0.0804
     80 H21        14.8204   28.0579  127.1626 H         1 KAR         0.0468
     81 H22        12.5869   27.8583  126.4325 H         1 KAR         0.1586
     82 H23        15.7023   25.9650  127.8743 H         1 KAR         0.0119
     83 H24        15.5602   25.3187  129.5443 H         1 KAR         0.0119
     84 H25        17.9150   25.7178  128.9330 H         1 KAR         0.0219
     85 H26        17.4154   26.8011  130.2758 H         1 KAR         0.0219
     86 H27        17.5575   27.4474  128.6059 H         1 KAR         0.0219
     87 H28        14.4716   29.3685  129.7981 H         1 KAR         0.0140
     88 H29        16.1514   28.7336  129.8424 H         1 KAR         0.0140
     89 H30        19.0321   29.4949  133.0543 H         1 KAR         0.0589
     90 H31        18.7096   27.7406  133.2668 H         1 KAR         0.0589
     91 H32        17.4548   29.7503  135.1891 H         1 KAR         0.0453
     92 H33        19.1682   29.2576  135.4088 H         1 KAR         0.0453
     93 H34        13.6174   21.1448  134.7283 H         1 KAR         0.0066
     94 H35        13.2200   20.1326  133.2986 H         1 KAR         0.0066
     95 H36        12.0693   22.8398  134.0260 H         1 KAR         0.0337
     96 H37        12.3265   22.2817  131.4773 H         1 KAR         0.0817
     97 H38        10.8166   23.0108  132.1219 H         1 KAR         0.0817
     98 H39        10.0452   21.8573  134.6374 H         1 KAR         0.0299
     99 H40        11.2854   20.7623  135.3369 H         1 KAR         0.0299
    100 H41        10.6499   18.0988  133.0907 H         1 KAR         0.2104
    101 H42         9.5154   19.0652  135.5929 H         1 KAR         0.0292
    102 H43         8.8388   18.2438  134.1457 H         1 KAR         0.0292
    103 H44         7.0633   19.3853  135.4427 H         1 KAR         0.0231
    104 H45         7.2454   20.1317  133.8190 H         1 KAR         0.0231
    105 H46         7.9220   20.9531  135.2662 H         1 KAR         0.0231
    106 H47         8.8209   21.1795  132.5464 H         1 KAR         0.0843
    107 H48         9.1298   19.5687  131.8140 H         1 KAR         0.0843
    108 H49        10.0810   21.5600  130.8955 H         1 KAR         0.2037
    109 H50        11.1260   20.5883  129.5092 H         1 KAR         0.0850
    110 H51        10.6464   19.1660  130.4960 H         1 KAR         0.0850
    111 H52        12.9211   18.9469  129.9320 H         1 KAR         0.0563
    112 H53        12.7811   19.2920  131.6893 H         1 KAR         0.0563
    113 H54        17.1784   22.7948  128.4515 H         1 KAR         0.0578
    114 H55        16.2966   22.7195  131.0596 H         1 KAR         0.2205
    115 H56        13.3953   19.5602  127.8327 H         1 KAR         0.0676
    116 H57        14.8240   20.2280  125.8936 H         1 KAR         0.0555
    117 H58        16.6909   21.8160  126.2031 H         1 KAR         0.0663
@<TRIPOS>BOND
     1    1    2 2  
     2    2    3 1  
     3    2    5 1  
     4    3    4 1  
     5    5    6 1  
     6    5   39 1  
     7    5   56 1  
     8    6    7 ar 
     9    6    9 ar 
    10    7    8 ar 
    11    8   13 ar 
    12    8   17 1  
    13    9   10 1  
    14    9   12 ar 
    15   10   11 1  
    16   12   13 ar 
    17   13   14 1  
    18   14   15 1  
    19   14   16 1  
    20   16   17 1  
    21   16   28 1  
    22   17   18 1  
    23   17   19 1  
    24   18   22 1  
    25   19   20 1  
    26   19   23 1  
    27   20   21 1  
    28   20   22 1  
    29   21   25 1  
    30   23   24 1  
    31   23   26 1  
    32   23   31 1  
    33   24   25 2  
    34   26   27 1  
    35   28   29 1  
    36   28   31 1  
    37   28   32 1  
    38   29   30 2  
    39   29   35 am 
    40   32   33 1  
    41   33   34 2  
    42   33   35 am 
    43   35   36 1  
    44   36   37 1  
    45   37   38 1  
    46   39   40 1  
    47   40   41 1  
    48   40   42 1  
    49   41   48 1  
    50   42   43 1  
    51   43   44 1  
    52   43   45 1  
    53   43   47 1  
    54   45   46 1  
    55   47   48 1  
    56   48   49 1  
    57   49   50 1  
    58   50   51 1  
    59   51   52 1  
    60   51   56 2  
    61   52   53 ar 
    62   52   57 ar 
    63   53   54 ar 
    64   53   55 1  
    65   54   59 ar 
    66   55   56 1  
    67   57   58 ar 
    68   58   59 ar 
    69    4   60 1  
    70    4   61 1  
    71    4   62 1  
    72    7   63 1  
    73   11   64 1  
    74   11   65 1  
    75   11   66 1  
    76   12   67 1  
    77   15   68 1  
    78   15   69 1  
    79   15   70 1  
    80   16   71 1  
    81   18   72 1  
    82   18   73 1  
    83   19   74 1  
    84   20   75 1  
    85   21   76 1  
    86   21   77 1  
    87   22   78 1  
    88   22   79 1  
    89   24   80 1  
    90   25   81 1  
    91   26   82 1  
    92   26   83 1  
    93   27   84 1  
    94   27   85 1  
    95   27   86 1  
    96   31   87 1  
    97   31   88 1  
    98   36   89 1  
    99   36   90 1  
   100   37   91 1  
   101   37   92 1  
   102   39   93 1  
   103   39   94 1  
   104   40   95 1  
   105   41   96 1  
   106   41   97 1  
   107   42   98 1  
   108   42   99 1  
   109   44  100 1  
   110   45  101 1  
   111   45  102 1  
   112   46  103 1  
   113   46  104 1  
   114   46  105 1  
   115   47  106 1  
   116   47  107 1  
   117   48  108 1  
   118   49  109 1  
   119   49  110 1  
   120   50  111 1  
   121   50  112 1  
   122   54  113 1  
   123   55  114 1  
   124   57  115 1  
   125   58  116 1  
   126   59  117 1  
@<TRIPOS>SUBSTRUCTURE
     1 KAR         1

