### 
### Created by X-TOOL on Mon Sep 10 21:12:51 2018
### 

@<TRIPOS>MOLECULE
1xbb_ligand
   70    74     1     0     0
SMALL
GAST_HUCK


@<TRIPOS>ATOM
      1 C1          3.9380    3.4650   11.7780 C.ar      1 STI        -0.0301
      2 C6          3.6290    2.3700   12.6010 C.ar      1 STI        -0.0291
      3 C5          4.6170    1.8690   13.4470 C.ar      1 STI         0.0316
      4 C4          5.8700    2.4920   13.4700 C.ar      1 STI         0.0248
      5 N3          6.1530    3.5280   12.6580 N.ar      1 STI        -0.2920
      6 C2          5.2200    4.0130   11.8200 C.ar      1 STI         0.0142
      7 C7          4.3560    0.7770   14.2950 C.ar      1 STI         0.0621
      8 C12         5.3540    0.2660   15.1580 C.ar      1 STI        -0.0153
      9 C11         5.0000   -0.7930   15.9910 C.ar      1 STI         0.0146
     10 N10         3.7150   -1.2770   15.9520 N.ar      1 STI        -0.2516
     11 C9          2.7860   -0.8100   15.0840 C.ar      1 STI         0.2094
     12 N8          3.0970    0.2260   14.2690 N.ar      1 STI        -0.2455
     13 N13         1.5510   -1.3980   15.1430 N.pl3     1 STI        -0.2475
     14 C14         0.4250   -1.0900   14.4150 C.ar      1 STI         0.0547
     15 C19        -0.6890   -1.8950   14.6570 C.ar      1 STI        -0.0359
     16 C18        -1.8910   -1.6720   13.9850 C.ar      1 STI        -0.0821
     17 C17        -1.9570   -0.6360   13.0540 C.ar      1 STI        -0.0588
     18 C16        -0.8630    0.1810   12.7910 C.ar      1 STI         0.0494
     19 C15         0.3500   -0.0450   13.4700 C.ar      1 STI        -0.0244
     20 N21        -1.1130    1.1520   11.8590 N.am      1 STI        -0.2404
     21 C22        -0.2990    2.0520   11.3120 C.2       1 STI         0.2255
     22 C23        -0.8540    3.2160   10.5210 C.ar      1 STI         0.0485
     23 C25        -0.1590    3.6410    9.3840 C.ar      1 STI        -0.0479
     24 C26        -0.6230    4.7160    8.6260 C.ar      1 STI        -0.0494
     25 C27        -1.7950    5.3740    9.0020 C.ar      1 STI         0.0061
     26 C28        -2.4920    4.9560   10.1450 C.ar      1 STI        -0.0494
     27 C29        -2.0220    3.8790   10.9050 C.ar      1 STI        -0.0479
     28 C46        -2.2480    6.5420    8.1440 C.3       1 STI         0.0045
     29 N48        -3.6840    6.7940    8.1130 N.4       1 STI         0.2553
     30 C53        -4.2520    7.7800    9.0360 C.3       1 STI         0.0110
     31 C52        -5.4660    7.1450    9.7170 C.3       1 STI         0.0092
     32 N51        -6.2730    6.6010    8.6310 N.4       1 STI         0.2405
     33 C54        -7.6040    7.1290    8.3640 C.3       1 STI        -0.0427
     34 C50        -5.7380    5.5230    7.8110 C.3       1 STI         0.0092
     35 C49        -4.5020    6.0990    7.1150 C.3       1 STI         0.0110
     36 O29         0.9160    1.9340   11.3550 O.2       1 STI        -0.3771
     37 C20        -0.6400   -3.0270   15.6600 C.3       1 STI        -0.0402
     38 H1          3.1870    3.8807   11.1160 H         1 STI         0.0718
     39 H2          2.6416    1.9232   12.5788 H         1 STI         0.0773
     40 H3          6.6286    2.1329   14.1560 H         1 STI         0.0864
     41 H4          5.4678    4.8422   11.1673 H         1 STI         0.0847
     42 H5          6.3548    0.6822   15.1705 H         1 STI         0.0677
     43 H6          5.7303   -1.2301   16.6623 H         1 STI         0.0893
     44 H7          1.4523   -2.1693   15.8185 H         1 STI         0.2158
     45 H8         -2.7575   -2.2925   14.1829 H         1 STI         0.0490
     46 H9         -2.8852   -0.4631   12.5215 H         1 STI         0.0394
     47 H10         1.2153    0.5762   13.2691 H         1 STI         0.0399
     48 H11        -2.0591    1.1915   11.5375 H         1 STI         0.2227
     49 H12         0.7500    3.1294    9.0888 H         1 STI         0.0652
     50 H13        -0.0754    5.0392    7.7481 H         1 STI         0.0572
     51 H14        -3.3994    5.4698   10.4412 H         1 STI         0.0572
     52 H15        -2.5626    3.5603   11.7889 H         1 STI         0.0652
     53 H16        -1.9179    6.3497    7.1125 H         1 STI         0.0991
     54 H17        -1.7554    7.4493    8.5236 H         1 STI         0.0991
     55 H18        -3.8509    6.0570    8.7801 H         1 STI         0.2053
     56 H19        -4.5626    8.6767    8.4797 H         1 STI         0.0868
     57 H20        -3.5031    8.0586    9.7920 H         1 STI         0.0868
     58 H21        -6.0338    7.9023   10.2774 H         1 STI         0.0868
     59 H22        -5.1493    6.3437   10.4009 H         1 STI         0.0868
     60 H23        -6.6701    5.9247    9.2643 H         1 STI         0.2035
     61 H24        -8.0475    6.5920    7.5126 H         1 STI         0.0778
     62 H25        -7.5323    8.2002    8.1246 H         1 STI         0.0778
     63 H26        -8.2374    6.9935    9.2531 H         1 STI         0.0778
     64 H27        -6.4820    5.2031    7.0666 H         1 STI         0.0868
     65 H28        -5.4577    4.6660    8.4410 H         1 STI         0.0868
     66 H29        -3.9192    5.2841    6.6607 H         1 STI         0.0868
     67 H30        -4.8135    6.8072    6.3331 H         1 STI         0.0868
     68 H31         0.3646   -3.0792   16.1051 H         1 STI         0.0342
     69 H32        -0.8661   -3.9765   15.1527 H         1 STI         0.0342
     70 H33        -1.3828   -2.8482   16.4514 H         1 STI         0.0342
@<TRIPOS>BOND
     1    1    2 ar 
     2    1    6 ar 
     3    2    3 ar 
     4    3    4 ar 
     5    3    7 1  
     6    4    5 ar 
     7    5    6 ar 
     8    7    8 ar 
     9    7   12 ar 
    10    8    9 ar 
    11    9   10 ar 
    12   10   11 ar 
    13   11   12 ar 
    14   11   13 1  
    15   13   14 1  
    16   14   15 ar 
    17   14   19 ar 
    18   15   16 ar 
    19   15   37 1  
    20   16   17 ar 
    21   17   18 ar 
    22   18   19 ar 
    23   18   20 1  
    24   20   21 am 
    25   21   22 1  
    26   21   36 2  
    27   22   23 ar 
    28   22   27 ar 
    29   23   24 ar 
    30   24   25 ar 
    31   25   26 ar 
    32   25   28 1  
    33   26   27 ar 
    34   28   29 1  
    35   29   30 1  
    36   29   35 1  
    37   30   31 1  
    38   31   32 1  
    39   32   33 1  
    40   32   34 1  
    41   34   35 1  
    42    1   38 1  
    43    2   39 1  
    44    4   40 1  
    45    6   41 1  
    46    8   42 1  
    47    9   43 1  
    48   13   44 1  
    49   16   45 1  
    50   17   46 1  
    51   19   47 1  
    52   20   48 1  
    53   23   49 1  
    54   24   50 1  
    55   26   51 1  
    56   27   52 1  
    57   28   53 1  
    58   28   54 1  
    59   29   55 1  
    60   30   56 1  
    61   30   57 1  
    62   31   58 1  
    63   31   59 1  
    64   32   60 1  
    65   33   61 1  
    66   33   62 1  
    67   33   63 1  
    68   34   64 1  
    69   34   65 1  
    70   35   66 1  
    71   35   67 1  
    72   37   68 1  
    73   37   69 1  
    74   37   70 1  
@<TRIPOS>SUBSTRUCTURE
     1 STI         1

