### 
### Created by X-TOOL on Mon Sep 10 21:12:52 2018
### 

@<TRIPOS>MOLECULE
1xbc_ligand
   62    69     1     0     0
SMALL
GAST_HUCK


@<TRIPOS>ATOM
      1 C1          6.0430    3.6690   12.5560 C.ar      1 STU        -0.0696
      2 C2          6.3950    4.7720   11.7760 C.ar      1 STU        -0.0759
      3 C3          5.4350    5.4420   11.0070 C.ar      1 STU        -0.0739
      4 C4          4.0950    5.0400   10.9830 C.ar      1 STU        -0.0408
      5 C5          3.6630    3.9390   11.7300 C.ar      1 STU         0.0695
      6 N6          2.4570    3.3470   11.9160 N.pl3     1 STU        -0.2292
      7 C7          2.5470    2.3070   12.7690 C.ar      1 STU         0.0978
      8 C8          1.6340    1.4040   13.3240 C.ar      1 STU         0.0952
      9 N9          0.2450    1.2880   13.0930 N.pl3     1 STU        -0.2376
     10 C10        -0.2510    0.2190   13.8730 C.ar      1 STU         0.0681
     11 C11        -1.5470   -0.2800   13.9900 C.ar      1 STU        -0.0404
     12 C12        -1.7380   -1.3670   14.8540 C.ar      1 STU        -0.0732
     13 C13        -0.6820   -1.9480   15.5800 C.ar      1 STU        -0.0750
     14 C14         0.6320   -1.4730   15.4890 C.ar      1 STU        -0.0685
     15 C15         0.8460   -0.4050   14.6310 C.ar      1 STU        -0.0072
     16 C16         2.0590    0.3580   14.2780 C.ar      1 STU        -0.0018
     17 C17         3.4820    0.2660   14.6600 C.ar      1 STU         0.0320
     18 C18         4.2400   -0.6050   15.5820 C.2       1 STU         0.1871
     19 N19         5.5020   -0.1520   15.6180 N.am      1 STU        -0.2790
     20 C20         5.8020    0.9420   14.6740 C.3       1 STU         0.0603
     21 C21         4.4300    1.2250   14.1040 C.ar      1 STU        -0.0168
     22 C22         3.9800    2.1920   13.2040 C.ar      1 STU         0.0011
     23 C23         4.7130    3.2710   12.5110 C.ar      1 STU        -0.0075
     24 C24         1.1240    3.8070   11.4150 C.3       1 STU         0.2020
     25 C25         0.5130    4.7680   12.4570 C.3       1 STU         0.1556
     26 C26        -0.9940    4.5980   12.4890 C.3       1 STU         0.0141
     27 C27        -1.3200    3.1870   12.9850 C.3       1 STU         0.0455
     28 C28        -0.5530    2.1140   12.1830 C.3       1 STU         0.1668
     29 O29         0.2880    2.6620   11.1590 O.3       1 STU        -0.3149
     30 O30         3.7620   -1.5520   16.1890 O.2       1 STU        -0.3964
     31 N31        -1.5810    5.6430   13.3080 N.4       1 STU         0.2291
     32 C32        -1.4970    7.0250   12.8450 C.3       1 STU        -0.0445
     33 O33         0.9760    4.5220   13.7920 O.3       1 STU        -0.3686
     34 C34         1.8980    5.4880   14.2970 C.3       1 STU         0.0373
     35 C35         1.2270    4.4960   10.0540 C.3       1 STU        -0.0059
     36 H1          6.7719    3.1487   13.1668 H         1 STU         0.0566
     37 H2          7.4236    5.1140   11.7654 H         1 STU         0.0516
     38 H3          5.7389    6.2966   10.4134 H         1 STU         0.0561
     39 H4          3.3825    5.5888   10.3778 H         1 STU         0.0538
     40 H5         -2.3719    0.1539   13.4366 H         1 STU         0.0539
     41 H6         -2.7359   -1.7750   14.9670 H         1 STU         0.0568
     42 H7         -0.8923   -2.7896   16.2300 H         1 STU         0.0516
     43 H8          1.4398   -1.9170   16.0595 H         1 STU         0.0576
     44 H9          6.1895   -0.5282   16.2392 H         1 STU         0.1863
     45 H10         6.5041    0.6179   13.8917 H         1 STU         0.0679
     46 H11         6.2116    1.8210   15.1931 H         1 STU         0.0679
     47 H12         0.7667    5.7995   12.1714 H         1 STU         0.0710
     48 H13        -1.3878    4.7031   11.4673 H         1 STU         0.0880
     49 H14        -2.4002    3.0105   12.8759 H         1 STU         0.0372
     50 H15        -1.0408    3.1077   14.0460 H         1 STU         0.0372
     51 H16        -1.2972    1.4690   11.6930 H         1 STU         0.0933
     52 H17        -1.1295    5.6035   14.2084 H         1 STU         0.2014
     53 H18        -2.5593    5.4239   13.4128 H         1 STU         0.2014
     54 H19        -1.9863    7.6866   13.5750 H         1 STU         0.0777
     55 H20        -2.0009    7.1169   11.8715 H         1 STU         0.0777
     56 H21        -0.4406    7.3129   12.7397 H         1 STU         0.0777
     57 H22         2.1925    5.2136   15.3207 H         1 STU         0.0524
     58 H23         1.4220    6.4796   14.3058 H         1 STU         0.0524
     59 H24         2.7898    5.5150   13.6537 H         1 STU         0.0524
     60 H25         0.2261    4.8154    9.7281 H         1 STU         0.0284
     61 H26         1.6454    3.7936    9.3181 H         1 STU         0.0284
     62 H27         1.8834    5.3748   10.1366 H         1 STU         0.0284
@<TRIPOS>BOND
     1    1    2 ar 
     2    1   23 ar 
     3    2    3 ar 
     4    3    4 ar 
     5    4    5 ar 
     6    5    6 1  
     7    5   23 ar 
     8    6    7 1  
     9    6   24 1  
    10    7    8 ar 
    11    7   22 ar 
    12    8    9 1  
    13    8   16 ar 
    14    9   10 1  
    15    9   28 1  
    16   10   11 ar 
    17   10   15 ar 
    18   11   12 ar 
    19   12   13 ar 
    20   13   14 ar 
    21   14   15 ar 
    22   15   16 1  
    23   16   17 ar 
    24   17   18 1  
    25   17   21 ar 
    26   18   19 am 
    27   18   30 2  
    28   19   20 1  
    29   20   21 1  
    30   21   22 ar 
    31   22   23 1  
    32   24   25 1  
    33   24   29 1  
    34   24   35 1  
    35   25   26 1  
    36   25   33 1  
    37   26   27 1  
    38   26   31 1  
    39   27   28 1  
    40   28   29 1  
    41   31   32 1  
    42   33   34 1  
    43    1   36 1  
    44    2   37 1  
    45    3   38 1  
    46    4   39 1  
    47   11   40 1  
    48   12   41 1  
    49   13   42 1  
    50   14   43 1  
    51   19   44 1  
    52   20   45 1  
    53   20   46 1  
    54   25   47 1  
    55   26   48 1  
    56   27   49 1  
    57   27   50 1  
    58   28   51 1  
    59   31   52 1  
    60   31   53 1  
    61   32   54 1  
    62   32   55 1  
    63   32   56 1  
    64   34   57 1  
    65   34   58 1  
    66   34   59 1  
    67   35   60 1  
    68   35   61 1  
    69   35   62 1  
@<TRIPOS>SUBSTRUCTURE
     1 STU         1

