### 
### Created by X-TOOL on Mon Sep 10 21:12:51 2018
### 

@<TRIPOS>MOLECULE
1xbo_ligand
   49    51     1     0     0
SMALL
GAST_HUCK


@<TRIPOS>ATOM
      1 C1         32.8960   31.7900   18.5570 C.ar      1 IX1        -0.0592
      2 C2         32.4280   30.9070   19.5840 C.ar      1 IX1         0.0091
      3 C3         31.0240   30.6640   19.6750 C.ar      1 IX1        -0.0550
      4 C4         30.1000   31.2720   18.7780 C.ar      1 IX1        -0.0433
      5 C5         30.5890   32.1510   17.7550 C.ar      1 IX1        -0.0645
      6 C6         31.9820   32.4040   17.6500 C.ar      1 IX1        -0.0686
      7 C7         33.3160   30.2190   20.5890 C.2       1 IX1         0.1634
      8 O12        32.6950   29.5150   21.6090 O.3       1 IX1        -0.1658
      9 N13        33.7090   28.9820   22.4160 N.2       1 IX1        -0.1273
     10 C14        34.9120   29.3410   21.9140 C.2       1 IX1         0.0986
     11 C15        34.6780   30.1580   20.6990 C.2       1 IX1         0.0365
     12 C16        36.2570   28.9450   22.5420 C.2       1 IX1         0.0698
     13 O1         37.2090   29.9170   22.5840 O.co2     1 IX1        -0.5619
     14 O2         36.4310   27.8340   22.9870 O.co2     1 IX1        -0.5619
     15 C8         28.6530   30.9850   18.9290 C.2       1 IX1        -0.0649
     16 C32        24.8110   29.9690   21.4260 C.ar      1 IX1         0.1097
     17 C33        23.9450   31.1220   21.6180 C.ar      1 IX1        -0.0372
     18 C34        22.6210   31.0010   22.1190 C.ar      1 IX1        -0.0744
     19 C35        22.1150   29.7320   22.4470 C.ar      1 IX1        -0.0377
     20 C36        22.9150   28.5720   22.2810 C.ar      1 IX1         0.1026
     21 C37        24.2620   28.6600   21.7740 C.ar      1 IX1         0.1183
     22 C38        25.0340   27.3800   21.6320 C.2       1 IX1         0.2509
     23 O11        25.1260   26.6010   22.5580 O.2       1 IX1        -0.3702
     24 O13        25.6070   27.1460   20.4280 O.3       1 IX1        -0.2845
     25 C39        26.3620   25.9160   20.2230 C.3       1 IX1         0.0641
     26 O14        22.3080   27.3820   22.6360 O.3       1 IX1        -0.3301
     27 O3         26.1650   30.0910   20.9130 O.3       1 IX1        -0.2997
     28 C40        26.6490   31.4130   20.5830 C.3       1 IX1         0.1047
     29 C41        28.0620   31.4810   20.0510 C.2       1 IX1        -0.0434
     30 C9         35.8380   30.7220   19.8930 C.3       1 IX1         0.0727
     31 O4         35.8160   30.2930   18.5400 O.3       1 IX1        -0.3861
     32 H1         33.9570   31.9938   18.4683 H         1 IX1         0.0563
     33 H2         30.6519   29.9997   20.4466 H         1 IX1         0.0559
     34 H3         29.8974   32.6203   17.0647 H         1 IX1         0.0558
     35 H4         32.3529   33.0670   16.8768 H         1 IX1         0.0598
     36 H5         28.0970   30.4126   18.1879 H         1 IX1         0.0430
     37 H6         24.3228   32.1074   21.3703 H         1 IX1         0.0464
     38 H7         22.0044   31.8832   22.2475 H         1 IX1         0.0600
     39 H8         21.1052   29.6384   22.8300 H         1 IX1         0.0464
     40 H9         26.7534   25.8931   19.1953 H         1 IX1         0.0574
     41 H10        25.7030   25.0501   20.3837 H         1 IX1         0.0574
     42 H11        27.1994   25.8767   20.9352 H         1 IX1         0.0574
     43 H12        22.8085   26.9667   23.3285 H         1 IX1         0.2507
     44 H13        26.6013   32.0273   21.4942 H         1 IX1         0.0823
     45 H14        25.9800   31.8368   19.8196 H         1 IX1         0.0823
     46 H15        28.7432   32.0376   20.6929 H         1 IX1         0.0762
     47 H16        36.7812   30.3920   20.3529 H         1 IX1         0.0678
     48 H17        35.7833   31.8204   19.9162 H         1 IX1         0.0678
     49 H18        35.0076   30.5791   18.1314 H         1 IX1         0.2120
@<TRIPOS>BOND
     1    2    1 ar 
     2    6    1 ar 
     3    3    2 ar 
     4    2    7 1  
     5    4    3 ar 
     6    4    5 ar 
     7   15    4 1  
     8    5    6 ar 
     9    7    8 1  
    10    7   11 2  
    11    8    9 1  
    12   10    9 2  
    13   11   10 1  
    14   10   12 1  
    15   11   30 1  
    16   12   13 ar 
    17   12   14 ar 
    18   29   15 2  
    19   16   17 ar 
    20   16   21 ar 
    21   27   16 1  
    22   17   18 ar 
    23   18   19 ar 
    24   20   19 ar 
    25   21   20 ar 
    26   20   26 1  
    27   21   22 1  
    28   22   23 2  
    29   22   24 1  
    30   24   25 1  
    31   28   27 1  
    32   28   29 1  
    33   30   31 1  
    34    1   32 1  
    35    3   33 1  
    36    5   34 1  
    37    6   35 1  
    38   15   36 1  
    39   17   37 1  
    40   18   38 1  
    41   19   39 1  
    42   25   40 1  
    43   25   41 1  
    44   25   42 1  
    45   26   43 1  
    46   28   44 1  
    47   28   45 1  
    48   29   46 1  
    49   30   47 1  
    50   30   48 1  
    51   31   49 1  
@<TRIPOS>SUBSTRUCTURE
     1 IX1         1

