### 
### Created by X-TOOL on Mon Sep 10 21:12:51 2018
### 

@<TRIPOS>MOLECULE
1xdd_ligand
   93    97     1     0     0
SMALL
GAST_HUCK


@<TRIPOS>ATOM
      1 O52        29.1670   85.3540   38.8860 O.2       1 AAY        -0.3701
      2 C51        29.7230   86.2550   38.2960 C.2       1 AAY         0.2369
      3 C53        29.1350   86.9140   37.0540 C.3       1 AAY         0.0570
      4 C62        28.7540   85.8550   36.0080 C.3       1 AAY        -0.0440
      5 C55        27.8940   87.7040   37.4450 C.3       1 AAY        -0.0350
      6 C58        28.2410   88.7810   38.4910 C.3       1 AAY        -0.0629
      7 O50        30.8820   86.8020   38.6570 O.3       1 AAY        -0.2712
      8 C26        31.6430   86.1280   39.6900 C.3       1 AAY         0.0991
      9 C28        32.2890   84.8370   39.1730 C.3       1 AAY        -0.0111
     10 C31        33.3240   85.1000   38.0670 C.3       1 AAY        -0.0250
     11 C46        32.7270   84.9580   36.6380 C.3       1 AAY        -0.0555
     12 C33        33.9480   86.4520   38.0870 C.2       1 AAY        -0.0920
     13 C35        33.7310   87.3600   39.0360 C.2       1 AAY        -0.0677
     14 C24        32.7210   87.1360   40.1510 C.3       1 AAY         0.0160
     15 C36        34.4430   88.5050   38.9530 C.2       1 AAY        -0.0819
     16 C38        34.3460   89.4710   39.8620 C.2       1 AAY        -0.0815
     17 C40        33.2230   89.5060   40.8810 C.3       1 AAY        -0.0129
     18 C42        33.8410   89.2000   42.2700 C.3       1 AAY        -0.0519
     19 C22        32.1100   88.5150   40.5100 C.3       1 AAY        -0.0163
     20 C19        30.9840   88.3680   41.6010 C.3       1 AAY        -0.0440
     21 C16        30.4750   89.7330   42.1220 C.3       1 AAY        -0.0288
     22 C2         29.3430   89.6190   43.1780 C.3       1 AAY         0.0496
     23 N1         29.7070   88.9010   44.4010 N.am      1 AAY        -0.2592
     24 C12        28.8580   88.0190   44.9870 C.2       1 AAY         0.1830
     25 O13        29.1390   87.4550   46.0250 O.2       1 AAY        -0.3966
     26 C9         27.5150   87.6950   44.4260 C.3       1 AAY         0.0636
     27 C7         26.9890   88.8510   43.5730 C.3       1 AAY         0.0740
     28 O14        25.7750   88.4650   42.9330 O.3       1 AAY        -0.3894
     29 C4         28.0770   89.0560   42.5080 C.3       1 AAY        -0.0012
     30 C66        30.9690   89.1450   45.0580 C.3       1 AAY         0.0661
     31 C69        30.8210   90.4090   45.8560 C.ar      1 AAY        -0.0252
     32 C92        31.2340   91.6260   45.3320 C.ar      1 AAY        -0.0600
     33 C90        31.0940   92.8040   46.0580 C.ar      1 AAY        -0.0631
     34 C73        30.5330   92.7450   47.3400 C.ar      1 AAY        -0.0241
     35 C74        30.3700   93.9040   48.1170 C.ar      1 AAY         0.0162
     36 C85        30.8120   95.2890   47.6190 C.3       1 AAY         0.0758
     37 O88        30.0640   95.6950   46.4720 O.3       1 AAY        -0.3844
     38 C75        29.7900   93.7890   49.3850 C.ar      1 AAY         0.0922
     39 O80        29.6220   94.9180   50.1740 O.3       1 AAY        -0.3278
     40 C81        28.2370   95.3000   50.3360 C.3       1 AAY         0.0567
     41 C76        29.3730   92.5510   49.8860 C.ar      1 AAY        -0.0391
     42 C78        29.5440   91.4070   49.1180 C.ar      1 AAY        -0.0690
     43 C72        30.1190   91.5080   47.8540 C.ar      1 AAY        -0.0387
     44 C70        30.2530   90.3390   47.1130 C.ar      1 AAY        -0.0601
     45 H1         29.8809   87.5965   36.6206 H         1 AAY         0.0551
     46 H2         28.3324   86.3507   35.1212 H         1 AAY         0.0258
     47 H3         28.0068   85.1700   36.4351 H         1 AAY         0.0258
     48 H4         29.6500   85.2862   35.7188 H         1 AAY         0.0258
     49 H5         27.1470   87.0166   37.8687 H         1 AAY         0.0291
     50 H6         27.4788   88.1904   36.5500 H         1 AAY         0.0291
     51 H7         27.3314   89.3387   38.7586 H         1 AAY         0.0231
     52 H8         28.9855   89.4735   38.0712 H         1 AAY         0.0231
     53 H9         28.6537   88.2997   39.3899 H         1 AAY         0.0231
     54 H10        30.9814   85.8778   40.5325 H         1 AAY         0.0672
     55 H11        31.5004   84.1843   38.7704 H         1 AAY         0.0319
     56 H12        32.7898   84.3322   40.0123 H         1 AAY         0.0319
     57 H13        34.1200   84.3515   38.1940 H         1 AAY         0.0426
     58 H14        33.5105   85.1567   35.8919 H         1 AAY         0.0253
     59 H15        31.9071   85.6800   36.5097 H         1 AAY         0.0253
     60 H16        32.3412   83.9369   36.5015 H         1 AAY         0.0253
     61 H17        34.6241   86.7143   37.2745 H         1 AAY         0.0428
     62 H18        33.2320   86.7263   41.0347 H         1 AAY         0.0452
     63 H19        35.1207   88.6420   38.1116 H         1 AAY         0.0405
     64 H20        35.0956   90.2608   39.8751 H         1 AAY         0.0629
     65 H21        32.7885   90.5163   40.9012 H         1 AAY         0.0478
     66 H22        34.6302   89.9340   42.4899 H         1 AAY         0.0259
     67 H23        34.2725   88.1882   42.2645 H         1 AAY         0.0259
     68 H24        33.0587   89.2608   43.0409 H         1 AAY         0.0259
     69 H25        31.6231   88.9067   39.6048 H         1 AAY         0.0351
     70 H26        31.3885   87.7963   42.4493 H         1 AAY         0.0272
     71 H27        30.1369   87.8214   41.1610 H         1 AAY         0.0272
     72 H28        30.0942   90.3104   41.2667 H         1 AAY         0.0288
     73 H29        31.3215   90.2676   42.5777 H         1 AAY         0.0288
     74 H30        29.1072   90.6460   43.4937 H         1 AAY         0.0561
     75 H31        26.8140   87.5091   45.2530 H         1 AAY         0.0528
     76 H32        27.5931   86.7927   43.8017 H         1 AAY         0.0528
     77 H33        26.8351   89.7586   44.1751 H         1 AAY         0.0619
     78 H34        25.9370   87.7119   42.3771 H         1 AAY         0.2100
     79 H35        28.3108   88.0927   42.0311 H         1 AAY         0.0314
     80 H36        27.7177   89.7644   41.7470 H         1 AAY         0.0314
     81 H37        31.7662   89.2638   44.3094 H         1 AAY         0.0681
     82 H38        31.2145   88.3055   45.7250 H         1 AAY         0.0681
     83 H39        31.6726   91.6589   44.3412 H         1 AAY         0.0560
     84 H40        31.4135   93.7513   45.6389 H         1 AAY         0.0593
     85 H41        31.8791   95.2503   47.3547 H         1 AAY         0.0699
     86 H42        30.6599   96.0236   48.4235 H         1 AAY         0.0699
     87 H43        30.3601   96.5523   46.1894 H         1 AAY         0.2123
     88 H44        28.1759   96.1976   50.9690 H         1 AAY         0.0573
     89 H45        27.6830   94.4774   50.8118 H         1 AAY         0.0573
     90 H46        27.7984   95.5158   49.3506 H         1 AAY         0.0573
     91 H47        28.9190   92.4854   50.8682 H         1 AAY         0.0557
     92 H48        29.2319   90.4417   49.4999 H         1 AAY         0.0519
     93 H49        29.9176   89.3897   47.5147 H         1 AAY         0.0510
@<TRIPOS>BOND
     1    1    2 2  
     2    2    3 1  
     3    2    7 1  
     4    3    4 1  
     5    3    5 1  
     6    5    6 1  
     7    7    8 1  
     8    8    9 1  
     9    8   14 1  
    10    9   10 1  
    11   10   11 1  
    12   10   12 1  
    13   12   13 2  
    14   13   14 1  
    15   13   15 1  
    16   14   19 1  
    17   15   16 2  
    18   16   17 1  
    19   17   18 1  
    20   17   19 1  
    21   19   20 1  
    22   20   21 1  
    23   21   22 1  
    24   22   23 1  
    25   22   29 1  
    26   23   24 am 
    27   23   30 1  
    28   24   25 2  
    29   24   26 1  
    30   26   27 1  
    31   27   28 1  
    32   27   29 1  
    33   30   31 1  
    34   31   32 ar 
    35   31   44 ar 
    36   32   33 ar 
    37   33   34 ar 
    38   34   35 ar 
    39   34   43 ar 
    40   35   36 1  
    41   35   38 ar 
    42   36   37 1  
    43   38   39 1  
    44   38   41 ar 
    45   39   40 1  
    46   41   42 ar 
    47   42   43 ar 
    48   43   44 ar 
    49    3   45 1  
    50    4   46 1  
    51    4   47 1  
    52    4   48 1  
    53    5   49 1  
    54    5   50 1  
    55    6   51 1  
    56    6   52 1  
    57    6   53 1  
    58    8   54 1  
    59    9   55 1  
    60    9   56 1  
    61   10   57 1  
    62   11   58 1  
    63   11   59 1  
    64   11   60 1  
    65   12   61 1  
    66   14   62 1  
    67   15   63 1  
    68   16   64 1  
    69   17   65 1  
    70   18   66 1  
    71   18   67 1  
    72   18   68 1  
    73   19   69 1  
    74   20   70 1  
    75   20   71 1  
    76   21   72 1  
    77   21   73 1  
    78   22   74 1  
    79   26   75 1  
    80   26   76 1  
    81   27   77 1  
    82   28   78 1  
    83   29   79 1  
    84   29   80 1  
    85   30   81 1  
    86   30   82 1  
    87   32   83 1  
    88   33   84 1  
    89   36   85 1  
    90   36   86 1  
    91   37   87 1  
    92   40   88 1  
    93   40   89 1  
    94   40   90 1  
    95   41   91 1  
    96   42   92 1  
    97   44   93 1  
@<TRIPOS>SUBSTRUCTURE
     1 AAY         1

