### 
### Created by X-TOOL on Mon Sep 10 21:12:51 2018
### 

@<TRIPOS>MOLECULE
1xdg_ligand
   91    94     1     0     0
SMALL
GAST_HUCK


@<TRIPOS>ATOM
      1 C88        52.3630   28.6250   15.9210 C.3       1 AB8         0.0568
      2 O87        52.5730   27.3410   15.3170 O.3       1 AB8        -0.3266
      3 C79        51.8920   26.2280   15.8440 C.ar      1 AB8         0.1130
      4 C80        52.4520   24.9700   15.6120 C.ar      1 AB8         0.1091
      5 O85        53.6390   24.8870   14.8940 O.3       1 AB8        -0.3414
      6 C81        51.8460   23.8140   16.0970 C.ar      1 AB8        -0.0481
      7 C83        50.6520   23.9320   16.8020 C.ar      1 AB8        -0.0782
      8 C77        50.6960   26.3310   16.5530 C.ar      1 AB8        -0.0379
      9 C76        50.0780   25.1760   17.0270 C.ar      1 AB8        -0.0405
     10 C73        48.7890   25.2370   17.8210 C.3       1 AB8         0.0626
     11 N1         49.1770   24.9150   19.1820 N.am      1 AB8        -0.2340
     12 C2         50.0450   25.8080   19.9570 C.3       1 AB8         0.0682
     13 C62        49.4100   27.2390   20.0940 C.3       1 AB8         0.0606
     14 C65        50.2460   28.2340   20.8980 C.2       1 AB8         0.1779
     15 N67        49.6660   28.8840   21.9410 N.am      1 AB8        -0.2900
     16 C69        50.2230   30.1400   22.4440 C.3       1 AB8         0.0195
     17 O66        51.4270   28.3480   20.6040 O.2       1 AB8        -0.3970
     18 C4         50.3930   25.2780   21.3610 C.3       1 AB8         0.0033
     19 C7         50.2810   23.7130   21.3480 C.3       1 AB8         0.0904
     20 O9         48.9460   23.4010   20.9540 O.3       1 AB8        -0.2603
     21 C10        48.6170   23.8250   19.7410 C.2       1 AB8         0.3244
     22 O11        47.7690   23.1620   19.1460 O.2       1 AB8        -0.3773
     23 C12        50.4940   23.1640   22.7740 C.3       1 AB8        -0.0216
     24 C15        50.4640   21.6040   22.8590 C.3       1 AB8        -0.0434
     25 C18        50.5260   21.1490   24.3320 C.3       1 AB8        -0.0163
     26 C20        50.4130   19.6130   24.2710 C.3       1 AB8         0.0160
     27 C31        50.3750   19.0710   25.6630 C.2       1 AB8        -0.0677
     28 C32        49.7220   19.8650   26.7270 C.2       1 AB8        -0.0819
     29 C34        49.2360   21.0690   26.4890 C.2       1 AB8        -0.0815
     30 C36        49.3550   21.7450   25.1440 C.3       1 AB8        -0.0129
     31 C38        48.0080   21.5930   24.3960 C.3       1 AB8        -0.0519
     32 C29        50.9060   17.8810   25.9450 C.2       1 AB8        -0.0920
     33 C27        51.5800   16.9720   24.9510 C.3       1 AB8        -0.0250
     34 C42        53.0570   16.7870   25.3610 C.3       1 AB8        -0.0555
     35 C24        51.4730   17.4780   23.4940 C.3       1 AB8        -0.0111
     36 C22        51.5830   19.0300   23.4400 C.3       1 AB8         0.0991
     37 O46        52.8050   19.4970   24.0220 O.3       1 AB8        -0.2712
     38 C47        53.8870   19.4220   23.2590 C.2       1 AB8         0.2369
     39 O48        53.8590   19.0910   22.0770 O.2       1 AB8        -0.3701
     40 C49        55.1550   19.7600   24.0160 C.3       1 AB8         0.0570
     41 C58        56.1400   18.5710   23.9800 C.3       1 AB8        -0.0440
     42 C51        55.8090   20.9630   23.3690 C.3       1 AB8        -0.0350
     43 C54        54.8630   22.1630   23.5780 C.3       1 AB8        -0.0629
     44 H1         52.9642   29.3807   15.3942 H         1 AB8         0.0573
     45 H2         52.6659   28.5871   16.9778 H         1 AB8         0.0573
     46 H3         51.2980   28.8919   15.8541 H         1 AB8         0.0573
     47 H4         53.8975   23.9762   14.8158 H         1 AB8         0.2420
     48 H5         52.2952   22.8419   15.9288 H         1 AB8         0.0492
     49 H6         50.1638   23.0412   17.1804 H         1 AB8         0.0437
     50 H7         50.2504   27.3024   16.7340 H         1 AB8         0.0451
     51 H8         48.0642   24.5022   17.4405 H         1 AB8         0.0663
     52 H9         48.3503   26.2445   17.7711 H         1 AB8         0.0663
     53 H10        50.9875   25.9061   19.3983 H         1 AB8         0.0585
     54 H11        48.4328   27.1344   20.5882 H         1 AB8         0.0525
     55 H12        49.2678   27.6490   19.0832 H         1 AB8         0.0525
     56 H13        48.8487   28.4993   22.3699 H         1 AB8         0.1847
     57 H14        49.6120   30.5016   23.2842 H         1 AB8         0.0484
     58 H15        50.2209   30.8903   21.6396 H         1 AB8         0.0484
     59 H16        51.2548   29.9724   22.7865 H         1 AB8         0.0484
     60 H17        49.6905   25.6935   22.0985 H         1 AB8         0.0317
     61 H18        51.4191   25.5737   21.6248 H         1 AB8         0.0317
     62 H19        51.0125   23.2753   20.6528 H         1 AB8         0.0648
     63 H20        49.6989   23.5621   23.4215 H         1 AB8         0.0294
     64 H21        51.4719   23.5125   23.1376 H         1 AB8         0.0294
     65 H22        51.3279   21.1939   22.3155 H         1 AB8         0.0272
     66 H23        49.5342   21.2331   22.4031 H         1 AB8         0.0272
     67 H24        51.4796   21.4505   24.7900 H         1 AB8         0.0351
     68 H25        49.4708   19.3459   23.7702 H         1 AB8         0.0452
     69 H26        49.6405   19.4467   27.7291 H         1 AB8         0.0405
     70 H27        48.7286   21.5962   27.2955 H         1 AB8         0.0629
     71 H28        49.5532   22.8157   25.3001 H         1 AB8         0.0478
     72 H29        47.2003   22.0276   25.0033 H         1 AB8         0.0259
     73 H30        47.8031   20.5262   24.2228 H         1 AB8         0.0259
     74 H31        48.0635   22.1172   23.4306 H         1 AB8         0.0259
     75 H32        50.8477   17.5387   26.9772 H         1 AB8         0.0428
     76 H33        51.0824   15.9921   24.9983 H         1 AB8         0.0426
     77 H34        53.5574   16.1239   24.6399 H         1 AB8         0.0253
     78 H35        53.1057   16.3401   26.3650 H         1 AB8         0.0253
     79 H36        53.5603   17.7651   25.3702 H         1 AB8         0.0253
     80 H37        50.5035   17.1702   23.0753 H         1 AB8         0.0319
     81 H38        52.2862   17.0376   22.8983 H         1 AB8         0.0319
     82 H39        51.5186   19.3686   22.3954 H         1 AB8         0.0672
     83 H40        54.9040   19.9933   25.0612 H         1 AB8         0.0551
     84 H41        57.0532   18.8345   24.5338 H         1 AB8         0.0258
     85 H42        56.3981   18.3402   22.9359 H         1 AB8         0.0258
     86 H43        55.6703   17.6915   24.4447 H         1 AB8         0.0258
     87 H44        55.9544   20.7804   22.2941 H         1 AB8         0.0291
     88 H45        56.7818   21.1631   23.8419 H         1 AB8         0.0291
     89 H46        55.3035   23.0611   23.1205 H         1 AB8         0.0231
     90 H47        54.7191   22.3332   24.6552 H         1 AB8         0.0231
     91 H48        53.8917   21.9506   23.1073 H         1 AB8         0.0231
@<TRIPOS>BOND
     1    1    2 1  
     2    2    3 1  
     3    3    4 ar 
     4    3    8 ar 
     5    4    5 1  
     6    4    6 ar 
     7    6    7 ar 
     8    7    9 ar 
     9    8    9 ar 
    10    9   10 1  
    11   10   11 1  
    12   11   12 1  
    13   11   21 am 
    14   12   13 1  
    15   12   18 1  
    16   13   14 1  
    17   14   15 am 
    18   14   17 2  
    19   15   16 1  
    20   18   19 1  
    21   19   20 1  
    22   19   23 1  
    23   20   21 1  
    24   21   22 2  
    25   23   24 1  
    26   24   25 1  
    27   25   26 1  
    28   25   30 1  
    29   26   27 1  
    30   26   36 1  
    31   27   28 1  
    32   27   32 2  
    33   28   29 2  
    34   29   30 1  
    35   30   31 1  
    36   32   33 1  
    37   33   34 1  
    38   33   35 1  
    39   35   36 1  
    40   36   37 1  
    41   37   38 1  
    42   38   39 2  
    43   38   40 1  
    44   40   41 1  
    45   40   42 1  
    46   42   43 1  
    47    1   44 1  
    48    1   45 1  
    49    1   46 1  
    50    5   47 1  
    51    6   48 1  
    52    7   49 1  
    53    8   50 1  
    54   10   51 1  
    55   10   52 1  
    56   12   53 1  
    57   13   54 1  
    58   13   55 1  
    59   15   56 1  
    60   16   57 1  
    61   16   58 1  
    62   16   59 1  
    63   18   60 1  
    64   18   61 1  
    65   19   62 1  
    66   23   63 1  
    67   23   64 1  
    68   24   65 1  
    69   24   66 1  
    70   25   67 1  
    71   26   68 1  
    72   28   69 1  
    73   29   70 1  
    74   30   71 1  
    75   31   72 1  
    76   31   73 1  
    77   31   74 1  
    78   32   75 1  
    79   33   76 1  
    80   34   77 1  
    81   34   78 1  
    82   34   79 1  
    83   35   80 1  
    84   35   81 1  
    85   36   82 1  
    86   40   83 1  
    87   41   84 1  
    88   41   85 1  
    89   41   86 1  
    90   42   87 1  
    91   42   88 1  
    92   43   89 1  
    93   43   90 1  
    94   43   91 1  
@<TRIPOS>SUBSTRUCTURE
     1 AB8         1

