### 
### Created by X-TOOL on Fri Sep 26 17:34:28 2014
### 

@<TRIPOS>MOLECULE
1xge_ligand
   16    16     1     0     0
SMALL
GAST_HUCK


@<TRIPOS>ATOM
      1 O2         24.9080   37.3920   72.7780 O.2       1 DOR        -0.3914
      2 C2         25.6880   38.3340   72.6590 C.2       1 DOR         0.2894
      3 N1         25.2210   39.5770   72.5990 N.am      1 DOR        -0.2508
      4 N3         27.0050   38.1320   72.5030 N.am      1 DOR        -0.1851
      5 C4         27.8820   39.1010   72.1160 C.2       1 DOR         0.2082
      6 O4         29.0800   38.8910   71.8900 O.2       1 DOR        -0.3866
      7 C5         27.3820   40.5310   71.9870 C.3       1 DOR         0.0769
      8 C6         26.1050   40.7070   72.7980 C.3       1 DOR         0.1123
      9 C7         25.4200   41.9610   72.3630 C.2       1 DOR         0.0622
     10 O72        26.0130   43.0460   72.4880 O.co2     1 DOR        -0.5665
     11 O71        24.2740   41.8500   71.8910 O.co2     1 DOR        -0.5665
     12 H1         24.2506   39.7334   72.4148 H         1 DOR         0.1878
     13 H2         27.3647   37.2161   72.6812 H         1 DOR         0.2254
     14 H3         27.1759   40.7517   70.9293 H         1 DOR         0.0548
     15 H4         28.1511   41.2219   72.3627 H         1 DOR         0.0548
     16 H5         26.3606   40.7815   73.8653 H         1 DOR         0.0750
@<TRIPOS>BOND
     1    1    2 2  
     2    2    3 am 
     3    2    4 am 
     4    3    8 1  
     5    4    5 am 
     6    5    6 2  
     7    5    7 1  
     8    7    8 1  
     9    8    9 1  
    10    9   10 ar 
    11    9   11 ar 
    12    3   12 1  
    13    4   13 1  
    14    7   14 1  
    15    7   15 1  
    16    8   16 1  
@<TRIPOS>SUBSTRUCTURE
     1 DOR         1

