### 
### Created by X-TOOL on Mon Sep 10 21:12:52 2018
### 

@<TRIPOS>MOLECULE
1xgi_ligand
   28    29     1     0     0
SMALL
GAST_HUCK


@<TRIPOS>ATOM
      1 N1         79.3860    4.2620   31.1130 N.am      1 NST        -0.0150
      2 C2         80.6400    4.5900   31.6620 C.ar      1 NST         0.3436
      3 C3         80.8560    4.5430   33.0920 C.ar      1 NST         0.1336
      4 C4         81.7000    4.9560   30.7720 C.ar      1 NST         0.1638
      5 C5         82.1570    4.8730   33.6220 C.ar      1 NST         0.0644
      6 C6         83.0010    5.2820   31.2920 C.ar      1 NST         0.2026
      7 C7         83.2260    5.2380   32.7230 C.ar      1 NST         0.0791
      8 N2         84.0180    5.6230   30.4340 N.2       1 NST        -0.1841
      9 S13        78.2550    5.4970   30.6710 S.o2      1 NST         0.1736
     10 C15        78.6570    6.3530   29.0760 C.2       1 NST         0.1450
     11 O16        76.9680    4.8510   30.5130 O.2       1 NST        -0.1167
     12 O17        78.1730    6.4570   31.7230 O.2       1 NST        -0.1167
     13 C18        78.8410    5.7610   27.8110 C.2       1 NST         0.0908
     14 C19        78.8350    7.7460   28.9260 C.2       1 NST        -0.0413
     15 S20        79.1370    6.8230   26.8680 S.3       1 NST        -0.0300
     16 C21        78.7460    4.2950   27.4830 C.2       1 NST         0.0699
     17 C22        79.1300    8.0340   27.5850 C.2       1 NST        -0.0008
     18 O23        78.4750    3.3870   28.4250 O.co2     1 NST        -0.5629
     19 O24        78.9280    3.9280   26.3350 O.co2     1 NST        -0.5629
     20 O1         83.8260    5.6600   29.2240 O.2       1 NST        -0.4825
     21 O2         85.1260    5.8890   30.8690 O.2       1 NST        -0.4825
     22 H1         79.1445    3.3013   30.9761 H         1 NST         0.4522
     23 H2         80.0485    4.2627   33.7586 H         1 NST         0.1431
     24 H3         81.5217    4.9875   29.7032 H         1 NST         0.1483
     25 H4         82.3310    4.8469   34.6916 H         1 NST         0.1000
     26 H5         84.2044    5.4810   33.1214 H         1 NST         0.1644
     27 H6         78.7557    8.4810   29.7256 H         1 NST         0.0444
     28 H7         79.3205    9.0230   27.1708 H         1 NST         0.0765
@<TRIPOS>BOND
     1    1    2 1  
     2    1    9 am 
     3    2    3 ar 
     4    2    4 ar 
     5    3    5 ar 
     6    4    6 ar 
     7    5    7 ar 
     8    6    7 ar 
     9    6    8 1  
    10    8   20 2  
    11    8   21 2  
    12    9   10 1  
    13    9   11 2  
    14    9   12 2  
    15   10   13 2  
    16   10   14 1  
    17   13   15 1  
    18   13   16 1  
    19   14   17 2  
    20   15   17 1  
    21   16   18 ar 
    22   16   19 ar 
    23    1   22 1  
    24    3   23 1  
    25    4   24 1  
    26    5   25 1  
    27    7   26 1  
    28   14   27 1  
    29   17   28 1  
@<TRIPOS>SUBSTRUCTURE
     1 NST         1

