### 
### Created by X-TOOL on Mon Sep 10 21:12:52 2018
### 

@<TRIPOS>MOLECULE
1xgj_ligand
   29    30     1     0     0
SMALL
GAST_HUCK


@<TRIPOS>ATOM
      1 N1        -57.1590    4.3260   57.5820 N.am      1 HTC        -0.1890
      2 S13       -55.8260    5.4620   57.7050 S.o2      1 HTC         0.0806
      3 O17       -55.7900    6.1800   56.4740 O.2       1 HTC        -0.1469
      4 O16       -54.5950    4.7130   57.9000 O.2       1 HTC        -0.1469
      5 C15       -56.0630    6.6900   59.0860 C.2       1 HTC         0.1131
      6 C19       -56.1900    8.0750   58.8870 C.2       1 HTC        -0.0444
      7 C22       -56.3550    8.7000   60.1290 C.2       1 HTC        -0.0009
      8 S20       -56.3320    7.7090   61.1400 S.3       1 HTC        -0.0301
      9 C18       -56.1480    6.4450   60.4850 C.2       1 HTC         0.0878
     10 C21       -56.0690    5.1360   61.1990 C.2       1 HTC         0.0698
     11 O24       -56.1500    5.1270   62.4350 O.co2     1 HTC        -0.5629
     12 O23       -55.9160    3.9960   60.5310 O.co2     1 HTC        -0.5629
     13 C2        -58.4610    4.7900   57.2240 C.ar      1 HTC         0.0956
     14 C4        -58.9700    4.5860   55.8810 C.ar      1 HTC         0.1084
     15 C6        -60.2830    5.0410   55.5340 C.ar      1 HTC        -0.0347
     16 C7        -61.1020    5.7060   56.5330 C.ar      1 HTC        -0.0166
     17 C5        -60.5980    5.9170   57.8720 C.ar      1 HTC        -0.0747
     18 C3        -59.2830    5.4620   58.2180 C.ar      1 HTC        -0.0493
     19 O1        -58.2030    3.9530   54.9360 O.3       1 HTC        -0.3403
     20 C         -62.4940    6.1810   56.1690 C.2       1 HTC         0.0489
     21 O         -63.2610    6.7990   57.0820 O.co2     1 HTC        -0.5655
     22 O25       -62.9260    5.9960   55.0270 O.co2     1 HTC        -0.5655
     23 H1        -57.0064    3.3543   57.7626 H         1 HTC         0.2140
     24 H2        -56.1643    8.5806   57.9228 H         1 HTC         0.0443
     25 H3        -56.4801    9.7697   60.2904 H         1 HTC         0.0765
     26 H4        -60.6640    4.8899   54.5305 H         1 HTC         0.0519
     27 H5        -61.2124    6.4175   58.6117 H         1 HTC         0.0516
     28 H6        -58.9015    5.6189   59.2205 H         1 HTC         0.0454
     29 H7        -57.3662    3.7142   55.3171 H         1 HTC         0.2427
@<TRIPOS>BOND
     1    1    2 am 
     2    1   13 1  
     3    2    3 2  
     4    2    4 2  
     5    2    5 1  
     6    5    6 1  
     7    5    9 2  
     8    6    7 2  
     9    7    8 1  
    10    8    9 1  
    11    9   10 1  
    12   10   11 ar 
    13   10   12 ar 
    14   13   14 ar 
    15   13   18 ar 
    16   14   15 ar 
    17   14   19 1  
    18   15   16 ar 
    19   16   17 ar 
    20   16   20 1  
    21   17   18 ar 
    22   20   21 ar 
    23   20   22 ar 
    24    1   23 1  
    25    6   24 1  
    26    7   25 1  
    27   15   26 1  
    28   17   27 1  
    29   18   28 1  
    30   19   29 1  
@<TRIPOS>SUBSTRUCTURE
     1 HTC         1

