### 
### Created by X-TOOL on Mon Sep 10 21:12:52 2018
### 

@<TRIPOS>MOLECULE
1xh4_ligand
   69    72     1     0     0
SMALL
GAST_HUCK


@<TRIPOS>ATOM
      1 O22        10.4770   21.1160   30.2560 O.2       1 R69        -0.3793
      2 C21        10.5970   22.3480   30.1630 C.2       1 R69         0.2156
      3 C14        11.8860   23.0360   30.3770 C.ar      1 R69         0.0697
      4 C13        13.0520   22.2830   30.6220 C.ar      1 R69        -0.0141
      5 C12        14.2860   22.9300   30.7630 C.ar      1 R69         0.0169
      6 N11        14.4020   24.2590   30.7110 N.ar      1 R69        -0.2918
      7 C16        13.3120   25.0040   30.4780 C.ar      1 R69         0.0169
      8 C15        12.0360   24.4380   30.2860 C.ar      1 R69        -0.0141
      9 N23         9.4840   23.1060   29.8090 N.am      1 R69        -0.2740
     10 C31         8.2370   22.5120   29.3400 C.3       1 R69         0.1040
     11 C32         8.0340   22.9900   27.8980 C.3       1 R69        -0.0080
     12 N33         6.7050   22.4480   27.4340 N.4       1 R69         0.2287
     13 C34         5.5070   23.3440   27.6050 C.3       1 R69        -0.0335
     14 C35         4.9730   23.2960   29.0250 C.3       1 R69        -0.0104
     15 C36         6.0280   23.8390   30.0020 C.3       1 R69        -0.0228
     16 C37         7.1380   22.8470   30.4060 C.3       1 R69         0.0696
     17 N41         6.5560   21.5950   30.9730 N.am      1 R69        -0.2801
     18 C42         5.9010   21.5730   32.2130 C.2       1 R69         0.2080
     19 O43         5.9260   22.5290   33.0120 O.2       1 R69        -0.3830
     20 C51         5.0990   20.4040   32.5400 C.ar      1 R69         0.0539
     21 C52         4.7440   20.1480   33.8810 C.ar      1 R69        -0.0367
     22 C53         3.9270   19.0680   34.2100 C.ar      1 R69        -0.0385
     23 C56         4.6540   19.5510   31.5100 C.ar      1 R69        -0.0367
     24 C55         3.8840   18.4530   31.8250 C.ar      1 R69        -0.0385
     25 C54         3.5170   18.2050   33.1690 C.ar      1 R69         0.0356
     26 C61         2.6330   17.0780   33.4470 C.2       1 R69         0.1546
     27 O62         1.8300   17.2340   34.3920 O.2       1 R69        -0.3723
     28 C71         2.5290   15.9180   32.6200 C.ar      1 R69         0.0520
     29 C72         3.6050   15.0230   32.3090 C.ar      1 R69         0.0949
     30 O92         4.7990   15.1780   32.7580 O.3       1 R69        -0.3358
     31 C73         3.2750   13.9260   31.4340 C.ar      1 R69        -0.0375
     32 C74         1.9990   13.7420   30.9360 C.ar      1 R69        -0.0473
     33 C76         1.2470   15.6980   32.1010 C.ar      1 R69        -0.0340
     34 C75         0.9520   14.6270   31.2730 C.ar      1 R69         0.0347
     35 N95        -0.3710   14.4470   30.7200 N.pl3     1 R69        -0.3200
     36 C98        -1.5140   15.2720   31.1550 C.3       1 R69         0.0131
     37 C99        -0.7470   13.1140   30.1970 C.3       1 R69         0.0131
     38 H1         12.9936   21.2035   30.7013 H         1 R69         0.0762
     39 H2         15.1764   22.3319   30.9195 H         1 R69         0.0837
     40 H3         13.4162   26.0822   30.4357 H         1 R69         0.0837
     41 H4         11.1814   25.0694   30.0715 H         1 R69         0.0762
     42 H5          9.5421   24.1018   29.8794 H         1 R69         0.1854
     43 H6          8.3377   21.4171   29.3097 H         1 R69         0.0632
     44 H7          8.8419   22.6081   27.2566 H         1 R69         0.0837
     45 H8          8.0262   24.0894   27.8625 H         1 R69         0.0837
     46 H9          6.5262   21.5992   27.9474 H         1 R69         0.2014
     47 H10         6.7887   22.2356   26.4522 H         1 R69         0.2014
     48 H11         4.7154   23.0176   26.9145 H         1 R69         0.0814
     49 H12         5.7975   24.3780   27.3674 H         1 R69         0.0814
     50 H13         4.7334   22.2554   29.2891 H         1 R69         0.0317
     51 H14         4.0632   23.9104   29.0930 H         1 R69         0.0317
     52 H15         5.5087   24.1566   30.9182 H         1 R69         0.0290
     53 H16         6.5078   24.7100   29.5317 H         1 R69         0.0290
     54 H17         7.6767   23.3403   31.2285 H         1 R69         0.0580
     55 H18         6.6356   20.7450   30.4523 H         1 R69         0.1850
     56 H19         5.1114   20.7996   34.6655 H         1 R69         0.0679
     57 H20         3.6154   18.8952   35.2338 H         1 R69         0.0679
     58 H21         4.9155   19.7573   30.4784 H         1 R69         0.0679
     59 H22         3.5586   17.7777   31.0419 H         1 R69         0.0679
     60 H23         5.3521   14.4778   32.4320 H         1 R69         0.2468
     61 H24         4.0525   13.2229   31.1578 H         1 R69         0.0526
     62 H25         1.7990   12.9053   30.2765 H         1 R69         0.0531
     63 H26         0.4550   16.3924   32.3570 H         1 R69         0.0536
     64 H27        -2.4170   14.9656   30.6067 H         1 R69         0.0473
     65 H28        -1.3014   16.3313   30.9484 H         1 R69         0.0473
     66 H29        -1.6760   15.1342   32.2342 H         1 R69         0.0473
     67 H30         0.1600   12.5686   29.8972 H         1 R69         0.0473
     68 H31        -1.4071   13.2349   29.3254 H         1 R69         0.0473
     69 H32        -1.2732   12.5480   30.9798 H         1 R69         0.0473
@<TRIPOS>BOND
     1    1    2 2  
     2    2    3 1  
     3    2    9 am 
     4    3    4 ar 
     5    3    8 ar 
     6    4    5 ar 
     7    5    6 ar 
     8    6    7 ar 
     9    7    8 ar 
    10    9   10 1  
    11   10   11 1  
    12   10   16 1  
    13   11   12 1  
    14   12   13 1  
    15   13   14 1  
    16   14   15 1  
    17   15   16 1  
    18   16   17 1  
    19   17   18 am 
    20   18   19 2  
    21   18   20 1  
    22   20   21 ar 
    23   20   23 ar 
    24   21   22 ar 
    25   22   25 ar 
    26   23   24 ar 
    27   24   25 ar 
    28   25   26 1  
    29   26   27 2  
    30   26   28 1  
    31   28   29 ar 
    32   28   33 ar 
    33   29   30 1  
    34   29   31 ar 
    35   31   32 ar 
    36   32   34 ar 
    37   33   34 ar 
    38   34   35 1  
    39   35   36 1  
    40   35   37 1  
    41    4   38 1  
    42    5   39 1  
    43    7   40 1  
    44    8   41 1  
    45    9   42 1  
    46   10   43 1  
    47   11   44 1  
    48   11   45 1  
    49   12   46 1  
    50   12   47 1  
    51   13   48 1  
    52   13   49 1  
    53   14   50 1  
    54   14   51 1  
    55   15   52 1  
    56   15   53 1  
    57   16   54 1  
    58   17   55 1  
    59   21   56 1  
    60   22   57 1  
    61   23   58 1  
    62   24   59 1  
    63   30   60 1  
    64   31   61 1  
    65   32   62 1  
    66   33   63 1  
    67   36   64 1  
    68   36   65 1  
    69   36   66 1  
    70   37   67 1  
    71   37   68 1  
    72   37   69 1  
@<TRIPOS>SUBSTRUCTURE
     1 R69         1

