### 
### Created by X-TOOL on Mon Sep 10 21:12:52 2018
### 

@<TRIPOS>MOLECULE
1xh5_ligand
   83    87     1     0     0
SMALL
GAST_HUCK


@<TRIPOS>ATOM
      1 O22         7.3900    9.4140    1.5240 O.2       1 R68        -0.3793
      2 C21         7.2020    9.3580    2.7540 C.2       1 R68         0.2156
      3 C14         5.8510    9.4950    3.3630 C.ar      1 R68         0.0697
      4 C13         4.7130    9.5200    2.5260 C.ar      1 R68        -0.0141
      5 C12         3.4350    9.6350    3.0840 C.ar      1 R68         0.0169
      6 N11         3.2650    9.6370    4.4110 N.ar      1 R68        -0.2918
      7 C16         4.3100    9.5980    5.2250 C.ar      1 R68         0.0169
      8 C15         5.6310    9.5570    4.7490 C.ar      1 R68        -0.0141
      9 N23         8.3090    9.1380    3.5610 N.am      1 R68        -0.2740
     10 C31         9.6570    8.8670    3.0180 C.3       1 R68         0.1040
     11 C32         9.9700    7.4310    3.4550 C.3       1 R68        -0.0080
     12 N33        11.2460    6.9640    2.9110 N.4       1 R68         0.2287
     13 C34        12.4100    7.1760    3.8330 C.3       1 R68        -0.0335
     14 C35        12.8210    8.6380    3.8300 C.3       1 R68        -0.0104
     15 C36        11.7480    9.5740    4.4550 C.3       1 R68        -0.0228
     16 C37        10.6490    9.9820    3.4450 C.3       1 R68         0.0696
     17 N41        11.2460   10.6180    2.2920 N.am      1 R68        -0.2802
     18 C42        11.8060   11.8770    2.2920 C.2       1 R68         0.2080
     19 O43        11.6770   12.5820    3.3050 O.2       1 R68        -0.3830
     20 C51        12.7170   12.2980    1.2290 C.ar      1 R68         0.0539
     21 C52        13.1010   13.6530    1.1370 C.ar      1 R68        -0.0367
     22 C53        14.0410   14.0660    0.2030 C.ar      1 R68        -0.0386
     23 C56        13.3430   11.3620    0.3890 C.ar      1 R68        -0.0367
     24 C55        14.2970   11.7750   -0.5250 C.ar      1 R68        -0.0386
     25 C54        14.6260   13.1290   -0.6580 C.ar      1 R68         0.0349
     26 C61        15.7030   13.5010   -1.5770 C.2       1 R68         0.1552
     27 O62        16.2950   14.5900   -1.3850 O.2       1 R68        -0.3749
     28 C71        16.2360   12.5360   -2.5400 C.ar      1 R68         0.0904
     29 C72        15.5330   12.1720   -3.6690 C.ar      1 R68         0.0996
     30 O82        14.3630   12.7960   -3.8180 O.3       1 R68        -0.3328
     31 C73        16.0100   11.2560   -4.5970 C.ar      1 R68        -0.0369
     32 C74        17.2520   10.6560   -4.3780 C.ar      1 R68        -0.0601
     33 C75        17.9960   10.9600   -3.2200 C.ar      1 R68         0.0339
     34 C76        17.4550   11.9040   -2.3500 C.ar      1 R68         0.1504
     35 F89        18.1180   12.2450   -1.2520 F         1 R68        -0.1856
     36 C91        19.3580   10.3270   -2.9820 C.3       1 R68         0.0134
     37 C92        20.5590   11.1930   -3.5230 C.3       1 R68         0.0160
     38 C97        20.6750   12.5880   -2.8390 C.3       1 R68        -0.0531
     39 C98        20.4400   11.3800   -5.0260 C.3       1 R68        -0.0531
     40 C93        21.8990   10.4480   -3.2650 C.3       1 R68        -0.0364
     41 C94        22.0320    9.9580   -1.7980 C.3       1 R68        -0.0118
     42 C95        20.7710    9.1690   -1.3510 C.3       1 R68        -0.0322
     43 N96        19.5140    9.9650   -1.5440 N.4       1 R68         0.2397
     44 H1          4.8301    9.4500    1.4506 H         1 R68         0.0762
     45 H2          2.5725    9.7235    2.4334 H         1 R68         0.0837
     46 H3          4.1395    9.5977    6.2955 H         1 R68         0.0837
     47 H4          6.4664    9.5729    5.4395 H         1 R68         0.0762
     48 H5          8.1898    9.1639    4.5535 H         1 R68         0.1854
     49 H6          9.6164    8.8833    1.9189 H         1 R68         0.0632
     50 H7          9.1674    6.7677    3.1001 H         1 R68         0.0837
     51 H8         10.0166    7.3951    4.5534 H         1 R68         0.0837
     52 H9         11.4262    7.4601    2.0522 H         1 R68         0.2014
     53 H10        11.1679    5.9775    2.7192 H         1 R68         0.2014
     54 H11        13.2569    6.5597    3.4969 H         1 R68         0.0814
     55 H12        12.1239    6.8810    4.8534 H         1 R68         0.0814
     56 H13        12.9953    8.9506    2.7899 H         1 R68         0.0317
     57 H14        13.7531    8.7409    4.4050 H         1 R68         0.0317
     58 H15        12.2453   10.4845    4.8205 H         1 R68         0.0290
     59 H16        11.2737    9.0514    5.2987 H         1 R68         0.0290
     60 H17        10.0401   10.7444    3.9529 H         1 R68         0.0580
     61 H18        11.2530   10.1072    1.4323 H         1 R68         0.1850
     62 H19        12.6556   14.3813    1.8051 H         1 R68         0.0679
     63 H20        14.3216   15.1112    0.1401 H         1 R68         0.0679
     64 H21        13.0781   10.3130    0.4568 H         1 R68         0.0679
     65 H22        14.7960   11.0400   -1.1461 H         1 R68         0.0679
     66 H23        13.9426   12.4924   -4.6140 H         1 R68         0.2487
     67 H24        15.4276   11.0104   -5.4776 H         1 R68         0.0505
     68 H25        17.6460    9.9526   -5.1026 H         1 R68         0.0561
     69 H26        19.3744    9.3867   -3.5526 H         1 R68         0.0992
     70 H27        21.5301   13.1345   -3.2635 H         1 R68         0.0238
     71 H28        20.8254   12.4548   -1.7575 H         1 R68         0.0238
     72 H29        19.7515   13.1597   -3.0131 H         1 R68         0.0238
     73 H30        20.3579   10.3968   -5.5124 H         1 R68         0.0238
     74 H31        21.3322   11.9019   -5.4024 H         1 R68         0.0238
     75 H32        19.5438   11.9766   -5.2515 H         1 R68         0.0238
     76 H33        22.7315   11.1323   -3.4855 H         1 R68         0.0276
     77 H34        21.9532    9.5769   -3.9344 H         1 R68         0.0276
     78 H35        22.1618   10.8294   -1.1393 H         1 R68         0.0317
     79 H36        22.9120    9.3030   -1.7172 H         1 R68         0.0317
     80 H37        20.8703    8.9143   -0.2855 H         1 R68         0.0814
     81 H38        20.7011    8.2451   -1.9439 H         1 R68         0.0814
     82 H39        18.7219    9.4153   -1.2499 H         1 R68         0.2028
     83 H40        19.5631   10.8063   -0.9910 H         1 R68         0.2028
@<TRIPOS>BOND
     1    1    2 2  
     2    2    3 1  
     3    2    9 am 
     4    3    4 ar 
     5    3    8 ar 
     6    4    5 ar 
     7    5    6 ar 
     8    6    7 ar 
     9    7    8 ar 
    10    9   10 1  
    11   10   11 1  
    12   10   16 1  
    13   11   12 1  
    14   12   13 1  
    15   13   14 1  
    16   14   15 1  
    17   15   16 1  
    18   16   17 1  
    19   17   18 am 
    20   18   19 2  
    21   18   20 1  
    22   20   21 ar 
    23   20   23 ar 
    24   21   22 ar 
    25   22   25 ar 
    26   23   24 ar 
    27   24   25 ar 
    28   25   26 1  
    29   26   27 2  
    30   26   28 1  
    31   28   29 ar 
    32   28   34 ar 
    33   29   30 1  
    34   29   31 ar 
    35   31   32 ar 
    36   32   33 ar 
    37   33   34 ar 
    38   33   36 1  
    39   34   35 1  
    40   36   37 1  
    41   36   43 1  
    42   37   38 1  
    43   37   39 1  
    44   37   40 1  
    45   40   41 1  
    46   41   42 1  
    47   42   43 1  
    48    4   44 1  
    49    5   45 1  
    50    7   46 1  
    51    8   47 1  
    52    9   48 1  
    53   10   49 1  
    54   11   50 1  
    55   11   51 1  
    56   12   52 1  
    57   12   53 1  
    58   13   54 1  
    59   13   55 1  
    60   14   56 1  
    61   14   57 1  
    62   15   58 1  
    63   15   59 1  
    64   16   60 1  
    65   17   61 1  
    66   21   62 1  
    67   22   63 1  
    68   23   64 1  
    69   24   65 1  
    70   30   66 1  
    71   31   67 1  
    72   32   68 1  
    73   36   69 1  
    74   38   70 1  
    75   38   71 1  
    76   38   72 1  
    77   39   73 1  
    78   39   74 1  
    79   39   75 1  
    80   40   76 1  
    81   40   77 1  
    82   41   78 1  
    83   41   79 1  
    84   42   80 1  
    85   42   81 1  
    86   43   82 1  
    87   43   83 1  
@<TRIPOS>SUBSTRUCTURE
     1 R68         1

