### 
### Created by X-TOOL on Mon Sep 10 21:12:52 2018
### 

@<TRIPOS>MOLECULE
1xh6_ligand
   76    80     1     0     0
SMALL
GAST_HUCK


@<TRIPOS>ATOM
      1 O62         1.0590   37.0850   17.1780 O.2       1 R94        -0.3723
      2 C61         2.0490   36.3820   16.9600 C.2       1 R94         0.1546
      3 C71         2.9150   36.7430   15.8230 C.ar      1 R94         0.0520
      4 C72         3.2520   35.8760   14.7710 C.ar      1 R94         0.0949
      5 C73         4.0700   36.3320   13.7130 C.ar      1 R94        -0.0375
      6 C74         4.5570   37.6370   13.7220 C.ar      1 R94        -0.0473
      7 C75         4.2340   38.5370   14.7620 C.ar      1 R94         0.0352
      8 N91         4.7240   39.8280   14.7530 N.pl3     1 R94        -0.3139
      9 C92         5.0870   40.4190   13.4470 C.3       1 R94         0.0247
     10 C93         6.1200   41.5400   13.6260 C.3       1 R94        -0.0336
     11 C94         5.6070   42.5680   14.6420 C.3       1 R94        -0.0495
     12 C95         5.3080   41.8820   15.9840 C.3       1 R94        -0.0336
     13 C96         4.2700   40.7680   15.7990 C.3       1 R94         0.0247
     14 C76         3.4220   38.0680   15.8090 C.ar      1 R94        -0.0340
     15 O92         2.7830   34.5790   14.7380 O.3       1 R94        -0.3358
     16 C54         2.3290   35.3920   17.9960 C.ar      1 R94         0.0356
     17 C55         3.6400   34.9000   18.1880 C.ar      1 R94        -0.0385
     18 C56         3.8910   34.0040   19.2250 C.ar      1 R94        -0.0367
     19 C53         1.2890   34.9850   18.8480 C.ar      1 R94        -0.0385
     20 C52         1.5430   34.0910   19.8780 C.ar      1 R94        -0.0367
     21 C51         2.8420   33.5940   20.0710 C.ar      1 R94         0.0539
     22 C42         3.1180   32.6760   21.1680 C.2       1 R94         0.2080
     23 O43         2.3840   32.5910   22.1620 O.2       1 R94        -0.3830
     24 N41         4.3020   31.9500   21.1250 N.am      1 R94        -0.2801
     25 C37         4.8260   31.2720   22.3510 C.3       1 R94         0.0696
     26 C36         5.3170   32.3850   23.3020 C.3       1 R94        -0.0228
     27 C35         6.3600   33.3590   22.7450 C.3       1 R94        -0.0104
     28 C34         7.7540   32.7450   22.7840 C.3       1 R94        -0.0335
     29 N33         7.8310   31.5730   21.8140 N.4       1 R94         0.2287
     30 C32         7.2760   30.2750   22.3610 C.3       1 R94        -0.0080
     31 C31         5.7950   30.1130   21.9840 C.3       1 R94         0.1040
     32 N23         5.3390   28.8370   22.5820 N.am      1 R94        -0.2740
     33 C21         5.1350   27.7290   21.7710 C.2       1 R94         0.2156
     34 O22         5.0420   27.9100   20.5470 O.2       1 R94        -0.3793
     35 C14         4.9520   26.3930   22.3360 C.ar      1 R94         0.0697
     36 C13         4.7250   25.3160   21.4600 C.ar      1 R94        -0.0141
     37 C12         4.5500   24.0400   21.9890 C.ar      1 R94         0.0169
     38 N11         4.5340   23.8190   23.3090 N.ar      1 R94        -0.2918
     39 C16         4.7440   24.8330   24.1500 C.ar      1 R94         0.0169
     40 C15         4.9400   26.1380   23.7050 C.ar      1 R94        -0.0141
     41 H1          4.3186   35.6663   12.8944 H         1 R94         0.0526
     42 H2          5.1979   37.9693   12.9133 H         1 R94         0.0531
     43 H3          4.1839   40.8326   12.9745 H         1 R94         0.0509
     44 H4          5.5124   39.6359   12.8022 H         1 R94         0.0509
     45 H5          6.2899   42.0367   12.6593 H         1 R94         0.0284
     46 H6          7.0653   41.1099   13.9885 H         1 R94         0.0284
     47 H7          4.6864   43.0312   14.2574 H         1 R94         0.0266
     48 H8          6.3724   43.3435   14.7927 H         1 R94         0.0266
     49 H9          4.9167   42.6272   16.6921 H         1 R94         0.0284
     50 H10         6.2366   41.4486   16.3837 H         1 R94         0.0284
     51 H11         4.1440   40.2254   16.7475 H         1 R94         0.0509
     52 H12         3.3088   41.2110   15.4994 H         1 R94         0.0509
     53 H13         3.1768   38.7359   16.6269 H         1 R94         0.0536
     54 H14         3.5183   33.9778   14.7265 H         1 R94         0.2468
     55 H15         4.4438   35.2173   17.5336 H         1 R94         0.0679
     56 H16         4.8936   33.6224   19.3808 H         1 R94         0.0679
     57 H17         0.2865   35.3700   18.7005 H         1 R94         0.0679
     58 H18         0.7390   33.7763   20.5335 H         1 R94         0.0679
     59 H19         4.8088   31.8801   20.2658 H         1 R94         0.1850
     60 H20         3.9758   30.7907   22.8565 H         1 R94         0.0580
     61 H21         5.7549   31.8983   24.1859 H         1 R94         0.0290
     62 H22         4.4394   32.9748   23.6052 H         1 R94         0.0290
     63 H23         6.3542   34.2775   23.3502 H         1 R94         0.0317
     64 H24         6.1037   33.6042   21.7038 H         1 R94         0.0317
     65 H25         7.9679   32.3899   23.8029 H         1 R94         0.0814
     66 H26         8.4956   33.5051   22.4973 H         1 R94         0.0814
     67 H27         8.7985   31.4259   21.5726 H         1 R94         0.2014
     68 H28         7.3108   31.8144   20.9851 H         1 R94         0.2014
     69 H29         7.3712   30.2754   23.4569 H         1 R94         0.0837
     70 H30         7.8485   29.4336   21.9435 H         1 R94         0.0837
     71 H31         5.7531   30.0151   20.8892 H         1 R94         0.0632
     72 H32         5.1786   28.7739   23.5670 H         1 R94         0.1854
     73 H33         4.6869   25.4771   20.3887 H         1 R94         0.0762
     74 H34         4.4232   23.2022   21.3129 H         1 R94         0.0837
     75 H35         4.7627   24.6345   25.2155 H         1 R94         0.0837
     76 H36         5.0814   26.9448   24.4150 H         1 R94         0.0762
@<TRIPOS>BOND
     1    1    2 2  
     2    2    3 1  
     3    2   16 1  
     4    3    4 ar 
     5    3   14 ar 
     6    4    5 ar 
     7    4   15 1  
     8    5    6 ar 
     9    6    7 ar 
    10    7    8 1  
    11    7   14 ar 
    12    8    9 1  
    13    8   13 1  
    14    9   10 1  
    15   10   11 1  
    16   11   12 1  
    17   12   13 1  
    18   16   17 ar 
    19   16   19 ar 
    20   17   18 ar 
    21   18   21 ar 
    22   19   20 ar 
    23   20   21 ar 
    24   21   22 1  
    25   22   23 2  
    26   22   24 am 
    27   24   25 1  
    28   25   26 1  
    29   25   31 1  
    30   26   27 1  
    31   27   28 1  
    32   28   29 1  
    33   29   30 1  
    34   30   31 1  
    35   31   32 1  
    36   32   33 am 
    37   33   34 2  
    38   33   35 1  
    39   35   36 ar 
    40   35   40 ar 
    41   36   37 ar 
    42   37   38 ar 
    43   38   39 ar 
    44   39   40 ar 
    45    5   41 1  
    46    6   42 1  
    47    9   43 1  
    48    9   44 1  
    49   10   45 1  
    50   10   46 1  
    51   11   47 1  
    52   11   48 1  
    53   12   49 1  
    54   12   50 1  
    55   13   51 1  
    56   13   52 1  
    57   14   53 1  
    58   15   54 1  
    59   17   55 1  
    60   18   56 1  
    61   19   57 1  
    62   20   58 1  
    63   24   59 1  
    64   25   60 1  
    65   26   61 1  
    66   26   62 1  
    67   27   63 1  
    68   27   64 1  
    69   28   65 1  
    70   28   66 1  
    71   29   67 1  
    72   29   68 1  
    73   30   69 1  
    74   30   70 1  
    75   31   71 1  
    76   32   72 1  
    77   36   73 1  
    78   37   74 1  
    79   39   75 1  
    80   40   76 1  
@<TRIPOS>SUBSTRUCTURE
     1 R94         1

