### 
### Created by X-TOOL on Mon Sep 10 21:12:52 2018
### 

@<TRIPOS>MOLECULE
1xh7_ligand
   82    86     1     0     0
SMALL
GAST_HUCK


@<TRIPOS>ATOM
      1 O22         7.2550    9.2200    1.5990 O.2       1 R96        -0.3793
      2 C21         7.1140    9.2490    2.8150 C.2       1 R96         0.2156
      3 C14         5.8160    9.4150    3.4710 C.ar      1 R96         0.0697
      4 C13         4.6640    9.6220    2.7130 C.ar      1 R96        -0.0141
      5 C12         3.4280    9.7470    3.3420 C.ar      1 R96         0.0169
      6 N11         3.3400    9.7130    4.6700 N.ar      1 R96        -0.2918
      7 C16         4.4130    9.5140    5.4430 C.ar      1 R96         0.0169
      8 C15         5.6650    9.3590    4.8640 C.ar      1 R96        -0.0141
      9 N23         8.2530    9.1150    3.5910 N.am      1 R96        -0.2740
     10 C31         9.5620    8.7770    2.9980 C.3       1 R96         0.1040
     11 C32         9.8560    7.3430    3.4360 C.3       1 R96        -0.0080
     12 N33        11.1320    6.8610    2.8810 N.4       1 R96         0.2287
     13 C34        12.2370    7.0400    3.8210 C.3       1 R96        -0.0335
     14 C35        12.8030    8.4720    3.7340 C.3       1 R96        -0.0104
     15 C36        11.7990    9.4990    4.2980 C.3       1 R96        -0.0228
     16 C37        10.6270    9.8850    3.3410 C.3       1 R96         0.0696
     17 N41        11.1130   10.5010    2.0760 N.am      1 R96        -0.2801
     18 C42        11.8290   11.6940    2.0960 C.2       1 R96         0.2080
     19 O43        11.7920   12.4130    3.0990 O.2       1 R96        -0.3830
     20 C51        12.6450   12.0500    0.9570 C.ar      1 R96         0.0539
     21 C52        12.9490   13.4010    0.7040 C.ar      1 R96        -0.0367
     22 C53        13.7650   13.7430   -0.3730 C.ar      1 R96        -0.0385
     23 C56        13.1450   11.0400    0.1400 C.ar      1 R96        -0.0367
     24 C55        13.9490   11.3800   -0.9360 C.ar      1 R96        -0.0385
     25 C54        14.2490   12.7180   -1.2040 C.ar      1 R96         0.0356
     26 C61        15.1220   13.0330   -2.3330 C.2       1 R96         0.1546
     27 O62        15.8390   14.0520   -2.2330 O.2       1 R96        -0.3723
     28 C71        15.3260   12.1950   -3.5210 C.ar      1 R96         0.0520
     29 C72        14.4090   11.8770   -4.5530 C.ar      1 R96         0.0949
     30 O92        13.1080   12.2590   -4.5980 O.3       1 R96        -0.3358
     31 C73        14.8050   11.0920   -5.6290 C.ar      1 R96        -0.0375
     32 C74        16.1040   10.5870   -5.7060 C.ar      1 R96        -0.0473
     33 C76        16.6270   11.6820   -3.6080 C.ar      1 R96        -0.0340
     34 C75        17.0360   10.8890   -4.6980 C.ar      1 R96         0.0352
     35 N91        18.3840   10.3860   -4.7750 N.pl3     1 R96        -0.3133
     36 C92        18.8920    9.9130   -6.0970 C.3       1 R96         0.0248
     37 C93        20.4130    9.6220   -6.2180 C.3       1 R96        -0.0331
     38 C94        21.2940   10.3330   -5.1880 C.3       1 R96        -0.0444
     39 C95        20.7660   10.0420   -3.7800 C.3       1 R96        -0.0156
     40 C97        21.7940   10.6660   -2.8030 C.3       1 R96        -0.0580
     41 C98        20.6980    8.5480   -3.4320 C.3       1 R96        -0.0580
     42 C96        19.3430   10.6340   -3.6400 C.3       1 R96         0.0299
     43 H1          4.7307    9.6857    1.6329 H         1 R96         0.0762
     44 H2          2.5312    9.8729    2.7462 H         1 R96         0.0837
     45 H3          4.3051    9.4738    6.5209 H         1 R96         0.0837
     46 H4          6.5321    9.1935    5.4931 H         1 R96         0.0762
     47 H5          8.1871    9.2508    4.5795 H         1 R96         0.1854
     48 H6          9.4635    8.7704    1.9024 H         1 R96         0.0632
     49 H7          9.0440    6.6886    3.0862 H         1 R96         0.0837
     50 H8          9.9078    7.3080    4.5342 H         1 R96         0.0837
     51 H9         11.3352    7.3742    2.0376 H         1 R96         0.2014
     52 H10        11.0437    5.8805    2.6647 H         1 R96         0.2014
     53 H11        13.0347    6.3217    3.5810 H         1 R96         0.0814
     54 H12        11.8742    6.8571    4.8432 H         1 R96         0.0814
     55 H13        13.0109    8.7132    2.6811 H         1 R96         0.0317
     56 H14        13.7363    8.5257    4.3137 H         1 R96         0.0317
     57 H15        12.3537   10.4169    4.5426 H         1 R96         0.0290
     58 H16        11.3629    9.0784    5.2161 H         1 R96         0.0290
     59 H17        10.0717   10.6683    3.8777 H         1 R96         0.0580
     60 H18        10.9229   10.0527    1.2025 H         1 R96         0.1850
     61 H19        12.5482   14.1760    1.3473 H         1 R96         0.0679
     62 H20        14.0211   14.7785   -0.5658 H         1 R96         0.0679
     63 H21        12.9086   10.0017    0.3428 H         1 R96         0.0679
     64 H22        14.3487   10.6012   -1.5754 H         1 R96         0.0679
     65 H23        12.7068   11.9201   -5.3897 H         1 R96         0.2468
     66 H24        14.0963   10.8690   -6.4184 H         1 R96         0.0526
     67 H25        16.3940    9.9621   -6.5429 H         1 R96         0.0531
     68 H26        17.3358   11.9006   -2.8175 H         1 R96         0.0536
     69 H27        18.6440   10.6847   -6.8406 H         1 R96         0.0509
     70 H28        18.3581    8.9829   -6.3416 H         1 R96         0.0509
     71 H29        20.7410    9.9343   -7.2204 H         1 R96         0.0284
     72 H30        20.5627    8.5382   -6.1042 H         1 R96         0.0284
     73 H31        21.2713   11.4173   -5.3716 H         1 R96         0.0272
     74 H32        22.3280    9.9679   -5.2749 H         1 R96         0.0272
     75 H33        21.4691   10.4896   -1.7670 H         1 R96         0.0236
     76 H34        21.8637   11.7484   -2.9861 H         1 R96         0.0236
     77 H35        22.7790   10.2030   -2.9622 H         1 R96         0.0236
     78 H36        19.9787    8.0488   -4.0979 H         1 R96         0.0236
     79 H37        20.3742    8.4292   -2.3875 H         1 R96         0.0236
     80 H38        21.6923    8.0957   -3.5614 H         1 R96         0.0236
     81 H39        18.8955   10.2101   -2.7289 H         1 R96         0.0514
     82 H40        19.4466   11.7231   -3.5251 H         1 R96         0.0514
@<TRIPOS>BOND
     1    1    2 2  
     2    2    3 1  
     3    2    9 am 
     4    3    4 ar 
     5    3    8 ar 
     6    4    5 ar 
     7    5    6 ar 
     8    6    7 ar 
     9    7    8 ar 
    10    9   10 1  
    11   10   11 1  
    12   10   16 1  
    13   11   12 1  
    14   12   13 1  
    15   13   14 1  
    16   14   15 1  
    17   15   16 1  
    18   16   17 1  
    19   17   18 am 
    20   18   19 2  
    21   18   20 1  
    22   20   21 ar 
    23   20   23 ar 
    24   21   22 ar 
    25   22   25 ar 
    26   23   24 ar 
    27   24   25 ar 
    28   25   26 1  
    29   26   27 2  
    30   26   28 1  
    31   28   29 ar 
    32   28   33 ar 
    33   29   30 1  
    34   29   31 ar 
    35   31   32 ar 
    36   32   34 ar 
    37   33   34 ar 
    38   34   35 1  
    39   35   36 1  
    40   35   42 1  
    41   36   37 1  
    42   37   38 1  
    43   38   39 1  
    44   39   40 1  
    45   39   41 1  
    46   39   42 1  
    47    4   43 1  
    48    5   44 1  
    49    7   45 1  
    50    8   46 1  
    51    9   47 1  
    52   10   48 1  
    53   11   49 1  
    54   11   50 1  
    55   12   51 1  
    56   12   52 1  
    57   13   53 1  
    58   13   54 1  
    59   14   55 1  
    60   14   56 1  
    61   15   57 1  
    62   15   58 1  
    63   16   59 1  
    64   17   60 1  
    65   21   61 1  
    66   22   62 1  
    67   23   63 1  
    68   24   64 1  
    69   30   65 1  
    70   31   66 1  
    71   32   67 1  
    72   33   68 1  
    73   36   69 1  
    74   36   70 1  
    75   37   71 1  
    76   37   72 1  
    77   38   73 1  
    78   38   74 1  
    79   40   75 1  
    80   40   76 1  
    81   40   77 1  
    82   41   78 1  
    83   41   79 1  
    84   41   80 1  
    85   42   81 1  
    86   42   82 1  
@<TRIPOS>SUBSTRUCTURE
     1 R96         1

