### 
### Created by X-TOOL on Mon Sep 10 21:12:52 2018
### 

@<TRIPOS>MOLECULE
1xh8_ligand
   82    86     1     0     0
SMALL
GAST_HUCK


@<TRIPOS>ATOM
      1 O22         9.5910   23.3280   30.4020 O.2       1 R55        -0.3793
      2 C21         9.4400   24.5770   30.3900 C.2       1 R55         0.2156
      3 C14        10.5630   25.4860   30.6780 C.ar      1 R55         0.0697
      4 C13        11.8060   24.8970   31.0070 C.ar      1 R55        -0.0141
      5 C12        12.9150   25.6600   31.2670 C.ar      1 R55         0.0169
      6 N11        12.8290   27.0560   31.2310 N.ar      1 R55        -0.2918
      7 C16        11.6220   27.6480   30.9480 C.ar      1 R55         0.0169
      8 C15        10.4850   26.8940   30.6870 C.ar      1 R55        -0.0141
      9 N23         8.2020   25.1480   30.0800 N.am      1 R55        -0.2740
     10 C31         7.1180   24.3660   29.4670 C.3       1 R55         0.1040
     11 C32         6.9340   24.7440   27.9890 C.3       1 R55        -0.0080
     12 N33         5.9500   23.8690   27.3210 N.4       1 R55         0.2287
     13 C34         4.5980   24.4440   27.2800 C.3       1 R55        -0.0335
     14 C35         3.9510   24.3730   28.6650 C.3       1 R55        -0.0104
     15 C36         4.6330   25.2320   29.7280 C.3       1 R55        -0.0228
     16 C37         5.8580   24.5450   30.3480 C.3       1 R55         0.0696
     17 N41         5.4100   23.2430   30.8730 N.am      1 R55        -0.2801
     18 C42         4.6510   23.0960   32.0210 C.2       1 R55         0.2080
     19 O43         4.3750   24.0660   32.7350 O.2       1 R55        -0.3830
     20 C51         4.0490   21.8080   32.3040 C.ar      1 R55         0.0539
     21 C52         3.6170   21.4870   33.5960 C.ar      1 R55        -0.0367
     22 C53         2.9930   20.2800   33.8300 C.ar      1 R55        -0.0385
     23 C56         3.8750   20.8860   31.2590 C.ar      1 R55        -0.0367
     24 C55         3.2270   19.6700   31.4940 C.ar      1 R55        -0.0385
     25 C54         2.8260   19.3450   32.7950 C.ar      1 R55         0.0356
     26 C61         2.0950   18.1080   33.0630 C.2       1 R55         0.1546
     27 O62         1.3050   18.1350   33.9870 O.2       1 R55        -0.3723
     28 C71         2.1590   16.8570   32.2890 C.ar      1 R55         0.0520
     29 C72         3.3190   16.1040   32.2800 C.ar      1 R55         0.0949
     30 O99         4.4000   16.5690   32.9660 O.3       1 R55        -0.3358
     31 C73         3.3990   14.9280   31.5560 C.ar      1 R55        -0.0375
     32 C74         2.3110   14.5170   30.8310 C.ar      1 R55        -0.0473
     33 C75         1.1180   15.2630   30.7970 C.ar      1 R55         0.0352
     34 C76         1.0600   16.4430   31.5400 C.ar      1 R55        -0.0340
     35 N91         0.0010   14.8070   30.0360 N.pl3     1 R55        -0.3138
     36 C92        -1.3000   15.5180   30.1670 C.3       1 R55         0.0252
     37 C93        -2.5120   14.7300   29.6380 C.3       1 R55        -0.0284
     38 C94        -2.2610   13.7830   28.4420 C.3       1 R55        -0.0314
     39 C97        -2.5650   14.5180   27.1180 C.3       1 R55        -0.0597
     40 C98        -3.2550   12.6340   28.5440 C.3       1 R55        -0.0597
     41 C95        -0.8780   13.0860   28.5170 C.3       1 R55        -0.0284
     42 C96         0.2510   14.0720   28.7760 C.3       1 R55         0.0252
     43 H1         11.8837   23.8168   31.0547 H         1 R55         0.0762
     44 H2         13.8591   25.1814   31.5006 H         1 R55         0.0837
     45 H3         11.5553   28.7298   30.9279 H         1 R55         0.0837
     46 H4          9.5397   27.3869   30.4906 H         1 R55         0.0762
     47 H5          8.0494   26.1157   30.2808 H         1 R55         0.1854
     48 H6          7.3967   23.3023   29.4949 H         1 R55         0.0632
     49 H7          7.9015   24.6510   27.4739 H         1 R55         0.0837
     50 H8          6.5847   25.7853   27.9279 H         1 R55         0.0837
     51 H9          5.9106   22.9930   27.8182 H         1 R55         0.2014
     52 H10         6.2572   23.7050   26.3751 H         1 R55         0.2014
     53 H11         3.9844   23.8788   26.5630 H         1 R55         0.0814
     54 H12         4.6597   25.4950   26.9613 H         1 R55         0.0814
     55 H13         3.9750   23.3262   29.0021 H         1 R55         0.0317
     56 H14         2.9063   24.7050   28.5735 H         1 R55         0.0317
     57 H15         3.9075   25.4455   30.5267 H         1 R55         0.0290
     58 H16         4.9560   26.1756   29.2641 H         1 R55         0.0290
     59 H17         6.1697   25.1683   31.1991 H         1 R55         0.0580
     60 H18         5.6693   22.4180   30.3708 H         1 R55         0.1850
     61 H19         3.7726   22.1854   34.4104 H         1 R55         0.0679
     62 H20         2.6271   20.0499   34.8241 H         1 R55         0.0679
     63 H21         4.2445   21.1182   30.2667 H         1 R55         0.0679
     64 H22         3.0367   18.9847   30.6759 H         1 R55         0.0679
     65 H23         5.1198   15.9560   32.8737 H         1 R55         0.2468
     66 H24         4.3095   14.3398   31.5620 H         1 R55         0.0526
     67 H25         2.3709   13.5923   30.2685 H         1 R55         0.0531
     68 H26         0.1553   17.0402   31.5342 H         1 R55         0.0536
     69 H27        -1.2334   16.4629   29.6077 H         1 R55         0.0509
     70 H28        -1.4684   15.7336   31.2324 H         1 R55         0.0509
     71 H29        -3.2746   15.4603   29.3296 H         1 R55         0.0289
     72 H30        -2.9011   14.1217   30.4678 H         1 R55         0.0289
     73 H31        -2.3844   13.8388   26.2718 H         1 R55         0.0235
     74 H32        -1.9106   15.3976   27.0282 H         1 R55         0.0235
     75 H33        -3.6165   14.8410   27.1110 H         1 R55         0.0235
     76 H34        -3.0776   12.0774   29.4760 H         1 R55         0.0235
     77 H35        -3.1260   11.9601   27.6842 H         1 R55         0.0235
     78 H36        -4.2795   13.0345   28.5455 H         1 R55         0.0235
     79 H37        -0.6879   12.5731   27.5627 H         1 R55         0.0289
     80 H38        -0.8973   12.3480   29.3324 H         1 R55         0.0289
     81 H39         1.2017   13.5245   28.8559 H         1 R55         0.0509
     82 H40         0.3086   14.7871   27.9422 H         1 R55         0.0509
@<TRIPOS>BOND
     1    1    2 2  
     2    2    3 1  
     3    2    9 am 
     4    3    4 ar 
     5    3    8 ar 
     6    4    5 ar 
     7    5    6 ar 
     8    6    7 ar 
     9    7    8 ar 
    10    9   10 1  
    11   10   11 1  
    12   10   16 1  
    13   11   12 1  
    14   12   13 1  
    15   13   14 1  
    16   14   15 1  
    17   15   16 1  
    18   16   17 1  
    19   17   18 am 
    20   18   19 2  
    21   18   20 1  
    22   20   21 ar 
    23   20   23 ar 
    24   21   22 ar 
    25   22   25 ar 
    26   23   24 ar 
    27   24   25 ar 
    28   25   26 1  
    29   26   27 2  
    30   26   28 1  
    31   28   29 ar 
    32   28   34 ar 
    33   29   30 1  
    34   29   31 ar 
    35   31   32 ar 
    36   32   33 ar 
    37   33   34 ar 
    38   33   35 1  
    39   35   36 1  
    40   35   42 1  
    41   36   37 1  
    42   37   38 1  
    43   38   39 1  
    44   38   40 1  
    45   38   41 1  
    46   41   42 1  
    47    4   43 1  
    48    5   44 1  
    49    7   45 1  
    50    8   46 1  
    51    9   47 1  
    52   10   48 1  
    53   11   49 1  
    54   11   50 1  
    55   12   51 1  
    56   12   52 1  
    57   13   53 1  
    58   13   54 1  
    59   14   55 1  
    60   14   56 1  
    61   15   57 1  
    62   15   58 1  
    63   16   59 1  
    64   17   60 1  
    65   21   61 1  
    66   22   62 1  
    67   23   63 1  
    68   24   64 1  
    69   30   65 1  
    70   31   66 1  
    71   32   67 1  
    72   34   68 1  
    73   36   69 1  
    74   36   70 1  
    75   37   71 1  
    76   37   72 1  
    77   39   73 1  
    78   39   74 1  
    79   39   75 1  
    80   40   76 1  
    81   40   77 1  
    82   40   78 1  
    83   41   79 1  
    84   41   80 1  
    85   42   81 1  
    86   42   82 1  
@<TRIPOS>SUBSTRUCTURE
     1 R55         1

