### 
### Created by X-TOOL on Mon Sep 10 21:12:52 2018
### 

@<TRIPOS>MOLECULE
1xh9_ligand
   69    72     1     0     0
SMALL
GAST_HUCK


@<TRIPOS>ATOM
      1 O22        10.0720   39.6130    9.4250 O.2       1 R69        -0.3793
      2 C21        10.1020   40.8510    9.2840 C.2       1 R69         0.2156
      3 C14        10.2490   41.4880    7.9680 C.ar      1 R69         0.0697
      4 C13        10.0960   40.7380    6.8000 C.ar      1 R69        -0.0141
      5 C12        10.2090   41.3170    5.5390 C.ar      1 R69         0.0169
      6 N11        10.4740   42.6110    5.4030 N.ar      1 R69        -0.2918
      7 C16        10.6380   43.3550    6.5060 C.ar      1 R69         0.0169
      8 C15        10.5300   42.8480    7.7990 C.ar      1 R69        -0.0141
      9 N23         9.9370   41.6510   10.4070 N.am      1 R69        -0.2740
     10 C31         9.3990   41.1270   11.6700 C.3       1 R69         0.1040
     11 C32         7.9570   41.6440   11.8140 C.3       1 R69        -0.0080
     12 N33         7.3140   41.0610   13.0440 N.4       1 R69         0.2287
     13 C34         7.5170   41.9130   14.2990 C.3       1 R69        -0.0335
     14 C35         8.9340   41.8200   14.8670 C.3       1 R69        -0.0104
     15 C36         9.9800   42.4120   13.9090 C.3       1 R69        -0.0228
     16 C37        10.4410   41.4570   12.7840 C.3       1 R69         0.0696
     17 N41        10.9590   40.1770   13.3160 N.am      1 R69        -0.2801
     18 C42        12.1220   40.1060   14.0600 C.2       1 R69         0.2080
     19 O43        12.8560   41.0850   14.1060 O.2       1 R69        -0.3830
     20 C51        12.4330   38.8970   14.8490 C.ar      1 R69         0.0539
     21 C52        13.7470   38.6670   15.3180 C.ar      1 R69        -0.0367
     22 C53        14.0360   37.5560   16.0970 C.ar      1 R69        -0.0385
     23 C56        11.4330   37.9930   15.1920 C.ar      1 R69        -0.0367
     24 C55        11.7310   36.8840   15.9670 C.ar      1 R69        -0.0385
     25 C54        13.0190   36.6430   16.4290 C.ar      1 R69         0.0356
     26 C61        13.3100   35.5040   17.2950 C.2       1 R69         0.1546
     27 O62        14.2690   35.6380   18.0900 O.2       1 R69        -0.3723
     28 C71        12.5680   34.2790   17.3660 C.ar      1 R69         0.0520
     29 C72        12.4150   33.4450   16.2240 C.ar      1 R69         0.0949
     30 O92        12.9030   33.7670   15.0670 O.3       1 R69        -0.3358
     31 C73        11.6880   32.2340   16.3820 C.ar      1 R69        -0.0375
     32 C74        11.1520   31.8950   17.6050 C.ar      1 R69        -0.0473
     33 C76        12.0210   33.9220   18.6160 C.ar      1 R69        -0.0340
     34 C75        11.3170   32.7300   18.7380 C.ar      1 R69         0.0347
     35 N95        10.7360   32.3640   19.9810 N.pl3     1 R69        -0.3200
     36 C98        10.6010   30.9260   20.2820 C.3       1 R69         0.0131
     37 C99         9.5650   33.1730   20.3690 C.3       1 R69         0.0131
     38 H1          9.8838   39.6778    6.8772 H         1 R69         0.0762
     39 H2         10.0788   40.7026    4.6555 H         1 R69         0.0837
     40 H3         10.8669   44.4077    6.3853 H         1 R69         0.0837
     41 H4         10.6613   43.4954    8.6585 H         1 R69         0.0762
     42 H5         10.1929   42.6163   10.3544 H         1 R69         0.1854
     43 H6          9.3366   40.0305   11.6080 H         1 R69         0.0632
     44 H7          7.3760   41.3509   10.9271 H         1 R69         0.0837
     45 H8          7.9712   42.7408   11.8971 H         1 R69         0.0837
     46 H9          7.7101   40.1490   13.2097 H         1 R69         0.2014
     47 H10         6.3242   40.9719   12.8752 H         1 R69         0.2014
     48 H11         6.8085   41.5749   15.0696 H         1 R69         0.0814
     49 H12         7.3100   42.9633   14.0459 H         1 R69         0.0814
     50 H13         9.1757   40.7620   15.0463 H         1 R69         0.0317
     51 H14         8.9719   42.3711   15.8182 H         1 R69         0.0317
     52 H15        10.8631   42.6967   14.4998 H         1 R69         0.0290
     53 H16         9.5473   43.3085   13.4411 H         1 R69         0.0290
     54 H17        11.2779   41.9682   12.2858 H         1 R69         0.0580
     55 H18        10.4511   39.3357   13.1312 H         1 R69         0.1850
     56 H19        14.5365   39.3658   15.0663 H         1 R69         0.0679
     57 H20        15.0475   37.3913   16.4504 H         1 R69         0.0679
     58 H21        10.4169   38.1568   14.8517 H         1 R69         0.0679
     59 H22        10.9399   36.1872   16.2191 H         1 R69         0.0679
     60 H23        12.6970   33.0863   14.4371 H         1 R69         0.2468
     61 H24        11.5543   31.5722   15.5339 H         1 R69         0.0526
     62 H25        10.5930   30.9714   17.7025 H         1 R69         0.0531
     63 H26        12.1486   34.5718   19.4742 H         1 R69         0.0536
     64 H27        10.1377   30.8005   21.2717 H         1 R69         0.0473
     65 H28        11.5956   30.4561   20.2805 H         1 R69         0.0473
     66 H29         9.9690   30.4492   19.5183 H         1 R69         0.0473
     67 H30         9.7461   34.2270   20.1117 H         1 R69         0.0473
     68 H31         9.4002   33.0833   21.4529 H         1 R69         0.0473
     69 H32         8.6756   32.8120   19.8317 H         1 R69         0.0473
@<TRIPOS>BOND
     1    1    2 2  
     2    2    3 1  
     3    2    9 am 
     4    3    4 ar 
     5    3    8 ar 
     6    4    5 ar 
     7    5    6 ar 
     8    6    7 ar 
     9    7    8 ar 
    10    9   10 1  
    11   10   11 1  
    12   10   16 1  
    13   11   12 1  
    14   12   13 1  
    15   13   14 1  
    16   14   15 1  
    17   15   16 1  
    18   16   17 1  
    19   17   18 am 
    20   18   19 2  
    21   18   20 1  
    22   20   21 ar 
    23   20   23 ar 
    24   21   22 ar 
    25   22   25 ar 
    26   23   24 ar 
    27   24   25 ar 
    28   25   26 1  
    29   26   27 2  
    30   26   28 1  
    31   28   29 ar 
    32   28   33 ar 
    33   29   30 1  
    34   29   31 ar 
    35   31   32 ar 
    36   32   34 ar 
    37   33   34 ar 
    38   34   35 1  
    39   35   36 1  
    40   35   37 1  
    41    4   38 1  
    42    5   39 1  
    43    7   40 1  
    44    8   41 1  
    45    9   42 1  
    46   10   43 1  
    47   11   44 1  
    48   11   45 1  
    49   12   46 1  
    50   12   47 1  
    51   13   48 1  
    52   13   49 1  
    53   14   50 1  
    54   14   51 1  
    55   15   52 1  
    56   15   53 1  
    57   16   54 1  
    58   17   55 1  
    59   21   56 1  
    60   22   57 1  
    61   23   58 1  
    62   24   59 1  
    63   30   60 1  
    64   31   61 1  
    65   32   62 1  
    66   33   63 1  
    67   36   64 1  
    68   36   65 1  
    69   36   66 1  
    70   37   67 1  
    71   37   68 1  
    72   37   69 1  
@<TRIPOS>SUBSTRUCTURE
     1 R69         1

