### 
### Created by X-TOOL on Mon Sep 10 21:12:52 2018
### 

@<TRIPOS>MOLECULE
1xhy_ligand
   31    31     1     0     0
SMALL
GAST_HUCK


@<TRIPOS>ATOM
      1 N          12.5840    7.2410   24.6640 N.4       1 KAI         0.2414
      2 CD         13.0020    8.6420   24.3830 C.3       1 KAI        -0.0283
      3 CD1        15.0920   10.3470   22.8180 C.3       1 KAI        -0.0622
      4 CD2        16.9690    9.3740   24.2830 C.3       1 KAI        -0.0622
      5 CA         13.7070    6.3650   24.8550 C.3       1 KAI         0.0349
      6 CB         14.9130    7.1570   24.4620 C.3       1 KAI         0.0334
      7 CB1        15.0390    6.9700   22.9400 C.3       1 KAI         0.0102
      8 CG         14.5200    8.5810   24.5590 C.3       1 KAI         0.0125
      9 CG1        15.7450    5.7410   22.4050 C.2       1 KAI         0.0354
     10 CG2        15.4890    9.6650   24.0820 C.3       1 KAI        -0.0384
     11 C          13.8130    6.1160   26.3680 C.2       1 KAI         0.0849
     12 O          12.9650    6.4240   27.2290 O.co2     1 KAI        -0.5642
     13 OD1        15.7330    5.5370   21.0590 O.co2     1 KAI        -0.5690
     14 OD2        16.3310    4.9990   23.1790 O.co2     1 KAI        -0.5690
     15 OXT        14.9050    5.5720   26.8230 O.co2     1 KAI        -0.5642
     16 H1         12.0381    6.9034   23.8868 H         1 KAI         0.2030
     17 H2         12.0203    7.2322   25.4996 H         1 KAI         0.2030
     18 H3         12.5475    9.3428   25.0987 H         1 KAI         0.0817
     19 H4         12.7330    8.9384   23.3584 H         1 KAI         0.0817
     20 H5         15.8458   11.1047   22.5578 H         1 KAI         0.0232
     21 H6         14.1151   10.8337   22.9551 H         1 KAI         0.0232
     22 H7         15.0221    9.6061   22.0079 H         1 KAI         0.0232
     23 H8         17.1158    8.8721   25.2507 H         1 KAI         0.0232
     24 H9         17.5334   10.3181   24.2703 H         1 KAI         0.0232
     25 H10        17.3277    8.7214   23.4734 H         1 KAI         0.0232
     26 H11        13.6139    5.4299   24.2833 H         1 KAI         0.1029
     27 H12        15.8173    6.8961   25.0314 H         1 KAI         0.0397
     28 H13        15.5790    7.8461   22.5516 H         1 KAI         0.0436
     29 H14        14.0178    6.9580   22.5315 H         1 KAI         0.0436
     30 H15        14.6045    8.7590   25.6412 H         1 KAI         0.0362
     31 H16        15.3217   10.4596   24.8240 H         1 KAI         0.0300
@<TRIPOS>BOND
     1    2    1 1  
     2    5    1 1  
     3    8    2 1  
     4   10    3 1  
     5   10    4 1  
     6    6    5 1  
     7    5   11 1  
     8    6    7 1  
     9    8    6 1  
    10    7    9 1  
    11    8   10 1  
    12    9   13 ar 
    13    9   14 ar 
    14   11   12 ar 
    15   11   15 ar 
    16    1   16 1  
    17    1   17 1  
    18    2   18 1  
    19    2   19 1  
    20    3   20 1  
    21    3   21 1  
    22    3   22 1  
    23    4   23 1  
    24    4   24 1  
    25    4   25 1  
    26    5   26 1  
    27    6   27 1  
    28    7   28 1  
    29    7   29 1  
    30    8   30 1  
    31   10   31 1  
@<TRIPOS>SUBSTRUCTURE
     1 KAI         1

