### 
### Created by X-TOOL on Mon Sep 10 21:12:53 2018
### 

@<TRIPOS>MOLECULE
1xk9_ligand
   40    42     1     0     0
SMALL
GAST_HUCK


@<TRIPOS>ATOM
      1 CAA        31.8880    7.6030   18.1380 C.3       1 P34        -0.0415
      2 N          32.8510    8.7170   18.0680 N.4       1 P34         0.2481
      3 CAB        32.8860    9.4620   19.3360 C.3       1 P34        -0.0415
      4 CA         32.5250    9.6490   16.9080 C.3       1 P34         0.0626
      5 C          31.0220   10.0210   16.6150 C.2       1 P34         0.2455
      6 O          30.8090   10.7810   15.6490 O.2       1 P34        -0.3808
      7 NAM        29.8710    9.5620   17.3270 N.am      1 P34        -0.2372
      8 CAP        29.3510    9.3770   18.6130 C.ar      1 P34         0.0545
      9 CAK        28.1420    8.5170   18.6140 C.ar      1 P34        -0.0434
     10 CAU        27.4000    8.1560   19.8490 C.ar      1 P34        -0.0020
     11 CAT        26.1680    7.3120   19.9000 C.ar      1 P34        -0.0079
     12 CAI        25.5700    6.7070   18.7210 C.ar      1 P34        -0.0530
     13 CAF        24.3690    5.8760   18.8090 C.ar      1 P34        -0.0599
     14 CAE        23.7700    5.6120   20.0600 C.ar      1 P34        -0.0588
     15 CAH        24.3270    6.1790   21.2490 C.ar      1 P34        -0.0442
     16 CAS        25.5330    7.0050   21.1970 C.ar      1 P34         0.0572
     17 CAQ        26.0740    7.5700   22.3840 C.2       1 P34         0.2237
     18 OAD        25.5960    7.3700   23.5060 O.2       1 P34        -0.3870
     19 NAN        27.2650    8.3890   22.3100 N.am      1 P34        -0.2368
     20 CAR        27.9220    8.6930   21.0770 C.ar      1 P34         0.0685
     21 CAJ        29.1120    9.5360   21.1150 C.ar      1 P34        -0.0471
     22 CAG        29.8160    9.8620   19.8810 C.ar      1 P34        -0.0498
     23 H1         32.1466    6.9473   18.9825 H         1 P34         0.0778
     24 H2         31.9252    7.0268   17.2017 H         1 P34         0.0778
     25 H3         30.8737    8.0036   18.2820 H         1 P34         0.0778
     26 H4         33.7669    8.3276   17.9083 H         1 P34         0.2047
     27 H5         33.6106   10.2858   19.2573 H         1 P34         0.0778
     28 H6         33.1863    8.7861   20.1502 H         1 P34         0.0778
     29 H7         31.8873    9.8712   19.5486 H         1 P34         0.0778
     30 H8         32.9222    9.1779   15.9968 H         1 P34         0.1067
     31 H9         33.0582   10.5927   17.0952 H         1 P34         0.1067
     32 H10        29.1859    9.2635   16.6625 H         1 P34         0.2212
     33 H11        27.7823    8.1330   17.6662 H         1 P34         0.0468
     34 H12        26.0256    6.8759   17.7520 H         1 P34         0.0613
     35 H13        23.9357    5.4598   17.9067 H         1 P34         0.0643
     36 H14        22.8904    4.9813   20.1191 H         1 P34         0.0608
     37 H15        23.8479    5.9937   22.2036 H         1 P34         0.0661
     38 H16        27.6449    8.7583   23.1581 H         1 P34         0.2277
     39 H17        29.4731    9.9204   22.0620 H         1 P34         0.0486
     40 H18        30.7051   10.4808   19.9218 H         1 P34         0.0494
@<TRIPOS>BOND
     1    1    2 1  
     2    2    3 1  
     3    2    4 1  
     4    4    5 1  
     5    5    6 2  
     6    5    7 am 
     7    7    8 1  
     8    8    9 ar 
     9    8   22 ar 
    10    9   10 ar 
    11   10   11 1  
    12   10   20 ar 
    13   11   12 ar 
    14   11   16 ar 
    15   12   13 ar 
    16   13   14 ar 
    17   14   15 ar 
    18   15   16 ar 
    19   16   17 1  
    20   17   18 2  
    21   17   19 am 
    22   19   20 1  
    23   20   21 ar 
    24   21   22 ar 
    25    1   23 1  
    26    1   24 1  
    27    1   25 1  
    28    2   26 1  
    29    3   27 1  
    30    3   28 1  
    31    3   29 1  
    32    4   30 1  
    33    4   31 1  
    34    7   32 1  
    35    9   33 1  
    36   12   34 1  
    37   13   35 1  
    38   14   36 1  
    39   15   37 1  
    40   19   38 1  
    41   21   39 1  
    42   22   40 1  
@<TRIPOS>SUBSTRUCTURE
     1 P34         1

