### 
### Created by X-TOOL on Mon Sep 10 21:12:52 2018
### 

@<TRIPOS>MOLECULE
1xlx_ligand
   49    51     1     0     0
SMALL
GAST_HUCK


@<TRIPOS>ATOM
      1 O25         7.9420    4.6870   -6.5890 O.co2     1 CIO        -0.5687
      2 C23         7.5860    3.4940   -6.9050 C.2       1 CIO         0.0378
      3 O24         8.3870    2.5060   -6.9390 O.co2     1 CIO        -0.5687
      4 C4          6.1320    3.2870   -7.3190 C.3       1 CIO         0.0102
      5 C5          6.0640    2.7220   -8.7220 C.3       1 CIO        -0.0456
      6 C6          4.6350    2.7440   -9.2690 C.3       1 CIO        -0.0540
      7 C3          5.3430    2.3310   -6.4460 C.3       1 CIO        -0.0456
      8 C2          3.8900    2.3100   -6.9890 C.3       1 CIO        -0.0540
      9 C1          3.7010    1.8680   -8.4480 C.3       1 CIO         0.0691
     10 C21         4.1120    0.4820   -8.6500 C.1       1 CIO         0.0445
     11 N22         4.4000   -0.6190   -8.8760 N.1       1 CIO        -0.3168
     12 C7          2.2530    1.8440   -8.9660 C.ar      1 CIO        -0.0481
     13 C8          1.1400    2.1900   -8.1900 C.ar      1 CIO        -0.0525
     14 C9         -0.1550    2.1250   -8.7190 C.ar      1 CIO        -0.0023
     15 C10        -0.4000    1.7080  -10.0480 C.ar      1 CIO         0.1615
     16 O11        -1.6840    1.6250  -10.6010 O.3       1 CIO        -0.2970
     17 C12        -2.8660    1.8650   -9.8090 C.3       1 CIO         0.0673
     18 C13         0.6990    1.3670  -10.8250 C.ar      1 CIO         0.1536
     19 C20         2.0010    1.4220  -10.2850 C.ar      1 CIO        -0.0178
     20 O14         0.4640    0.9490  -12.1020 O.3       1 CIO        -0.3092
     21 C15         1.6130    0.8440  -12.9960 C.3       1 CIO         0.0802
     22 C16         1.5100   -0.4340  -13.7600 C.3       1 CIO        -0.0225
     23 C17         0.4070   -0.1240  -14.7200 C.3       1 CIO        -0.0503
     24 C18         0.4930    1.3530  -14.9750 C.3       1 CIO        -0.0503
     25 C19         1.6120    1.8690  -14.1020 C.3       1 CIO        -0.0225
     26 H1          5.6363    4.2687   -7.2953 H         1 CIO         0.0465
     27 H2          6.4243    1.6828   -8.7063 H         1 CIO         0.0277
     28 H3          6.7077    3.3234   -9.3807 H         1 CIO         0.0277
     29 H4          4.6454    2.3784  -10.3064 H         1 CIO         0.0170
     30 H5          4.2620    3.7786   -9.2485 H         1 CIO         0.0170
     31 H6          5.3507    2.6792   -5.4026 H         1 CIO         0.0277
     32 H7          5.7802    1.3231   -6.4995 H         1 CIO         0.0277
     33 H8          3.4851    3.3284   -6.8950 H         1 CIO         0.0170
     34 H9          3.3082    1.6241   -6.3557 H         1 CIO         0.0170
     35 H10         1.2828    2.5128   -7.1651 H         1 CIO         0.0763
     36 H11        -0.9942    2.4024   -8.0915 H         1 CIO         0.0631
     37 H12        -3.7598    1.7475  -10.4394 H         1 CIO         0.0594
     38 H13        -2.8347    2.8873   -9.4040 H         1 CIO         0.0594
     39 H14        -2.9047    1.1432   -8.9799 H         1 CIO         0.0594
     40 H15         2.8379    1.1286  -10.9084 H         1 CIO         0.0699
     41 H16         2.5425    0.8991  -12.4104 H         1 CIO         0.0647
     42 H17         1.2446   -1.2745  -13.1019 H         1 CIO         0.0294
     43 H18         2.4479   -0.6630  -14.2871 H         1 CIO         0.0294
     44 H19        -0.5679   -0.3810  -14.2800 H         1 CIO         0.0266
     45 H20         0.5455   -0.6835  -15.6569 H         1 CIO         0.0266
     46 H21        -0.4554    1.8417  -14.7071 H         1 CIO         0.0266
     47 H22         0.7175    1.5442  -16.0347 H         1 CIO         0.0266
     48 H23         2.5709    1.8823  -14.6408 H         1 CIO         0.0294
     49 H24         1.3929    2.8764  -13.7185 H         1 CIO         0.0294
@<TRIPOS>BOND
     1    1    2 ar 
     2    2    3 ar 
     3    2    4 1  
     4    4    5 1  
     5    4    7 1  
     6    5    6 1  
     7    6    9 1  
     8    7    8 1  
     9    8    9 1  
    10    9   10 1  
    11    9   12 1  
    12   10   11 3  
    13   12   13 ar 
    14   12   19 ar 
    15   13   14 ar 
    16   14   15 ar 
    17   15   16 1  
    18   15   18 ar 
    19   16   17 1  
    20   18   19 ar 
    21   18   20 1  
    22   20   21 1  
    23   21   22 1  
    24   21   25 1  
    25   22   23 1  
    26   23   24 1  
    27   24   25 1  
    28    4   26 1  
    29    5   27 1  
    30    5   28 1  
    31    6   29 1  
    32    6   30 1  
    33    7   31 1  
    34    7   32 1  
    35    8   33 1  
    36    8   34 1  
    37   13   35 1  
    38   14   36 1  
    39   17   37 1  
    40   17   38 1  
    41   17   39 1  
    42   19   40 1  
    43   21   41 1  
    44   22   42 1  
    45   22   43 1  
    46   23   44 1  
    47   23   45 1  
    48   24   46 1  
    49   24   47 1  
    50   25   48 1  
    51   25   49 1  
@<TRIPOS>SUBSTRUCTURE
     1 CIO         1

