### 
### Created by X-TOOL on Mon Sep 10 21:12:51 2018
### 

@<TRIPOS>MOLECULE
1xlz_ligand
   44    45     1     0     0
SMALL
GAST_HUCK


@<TRIPOS>ATOM
      1 O19         6.5760    3.1870   -7.0220 O.2       1 FIL        -0.3741
      2 C18         6.5170    2.8530   -8.2060 C.2       1 FIL         0.3627
      3 N20         7.4940    2.1760   -8.8220 N.am      1 FIL        -0.2722
      4 O21         5.3120    3.2080   -8.9550 O.3       1 FIL        -0.1965
      5 N2          4.0190    3.1740   -8.3150 N.4       1 FIL         0.4231
      6 C1          3.3610    1.9280   -7.9340 C.3       1 FIL         0.0357
      7 C17         4.2130    0.7060   -8.2580 C.3       1 FIL        -0.0119
      8 C3          2.0380    1.8280   -8.6130 C.ar      1 FIL        -0.0143
      9 C4          0.8720    2.0680   -7.8950 C.ar      1 FIL        -0.0748
     10 C5         -0.3680    1.9920   -8.5070 C.ar      1 FIL        -0.0477
     11 C6         -0.4670    1.6670   -9.8500 C.ar      1 FIL         0.1122
     12 O7         -1.6970    1.5790  -10.4530 O.3       1 FIL        -0.3294
     13 C8         -2.9020    2.1440   -9.9420 C.3       1 FIL         0.0554
     14 C9          0.7060    1.4250  -10.5830 C.ar      1 FIL         0.1141
     15 C16         1.9510    1.5090   -9.9600 C.ar      1 FIL        -0.0345
     16 O10         0.6080    1.1050  -11.9060 O.3       1 FIL        -0.3201
     17 C11         1.7240    1.0960  -12.7980 C.3       1 FIL         0.0787
     18 C12         1.9170   -0.2950  -13.3580 C.3       1 FIL        -0.0226
     19 C13         1.0070   -0.3610  -14.5680 C.3       1 FIL        -0.0503
     20 C14         0.8700    1.0630  -15.0700 C.3       1 FIL        -0.0503
     21 C15         1.3770    1.9720  -13.9680 C.3       1 FIL        -0.0226
     22 H1          8.3228    1.9274   -8.3208 H         1 FIL         0.1832
     23 H2          7.3949    1.9190   -9.7833 H         1 FIL         0.1832
     24 H3          3.3848    3.6443   -8.9417 H         1 FIL         0.2419
     25 H4          4.1130    3.7107   -7.4669 H         1 FIL         0.2419
     26 H5          3.1944    1.9480   -6.8469 H         1 FIL         0.1002
     27 H6          3.6774   -0.2054   -7.9540 H         1 FIL         0.0304
     28 H7          5.1669    0.7694   -7.7139 H         1 FIL         0.0304
     29 H8          4.4094    0.6723   -9.3398 H         1 FIL         0.0304
     30 H9          0.9342    2.3180   -6.8420 H         1 FIL         0.0438
     31 H10        -1.2659    2.1879   -7.9321 H         1 FIL         0.0493
     32 H11        -3.7320    1.9196  -10.6281 H         1 FIL         0.0570
     33 H12        -2.7861    3.2341   -9.8510 H         1 FIL         0.0570
     34 H13        -3.1178    1.7143   -8.9527 H         1 FIL         0.0570
     35 H14         2.8540    1.3243  -10.5306 H         1 FIL         0.0452
     36 H15         2.6335    1.4465  -12.2882 H         1 FIL         0.0645
     37 H16         1.6287   -1.0539  -12.6158 H         1 FIL         0.0294
     38 H17         2.9650   -0.4507  -13.6536 H         1 FIL         0.0294
     39 H18         0.0228   -0.7618  -14.2840 H         1 FIL         0.0266
     40 H19         1.4521   -0.9987  -15.3460 H         1 FIL         0.0266
     41 H20        -0.1845    1.2866  -15.2889 H         1 FIL         0.0266
     42 H21         1.4710    1.2020  -15.9807 H         1 FIL         0.0266
     43 H22         2.2695    2.5171  -14.3092 H         1 FIL         0.0294
     44 H23         0.5951    2.6910  -13.6823 H         1 FIL         0.0294
@<TRIPOS>BOND
     1    1    2 2  
     2    2    3 am 
     3    2    4 1  
     4    4    5 1  
     5    5    6 1  
     6    6    7 1  
     7    6    8 1  
     8    8    9 ar 
     9    8   15 ar 
    10    9   10 ar 
    11   10   11 ar 
    12   11   12 1  
    13   11   14 ar 
    14   12   13 1  
    15   14   15 ar 
    16   14   16 1  
    17   16   17 1  
    18   17   18 1  
    19   17   21 1  
    20   18   19 1  
    21   19   20 1  
    22   20   21 1  
    23    3   22 1  
    24    3   23 1  
    25    5   24 1  
    26    5   25 1  
    27    6   26 1  
    28    7   27 1  
    29    7   28 1  
    30    7   29 1  
    31    9   30 1  
    32   10   31 1  
    33   13   32 1  
    34   13   33 1  
    35   13   34 1  
    36   15   35 1  
    37   17   36 1  
    38   18   37 1  
    39   18   38 1  
    40   19   39 1  
    41   19   40 1  
    42   20   41 1  
    43   20   42 1  
    44   21   43 1  
    45   21   44 1  
@<TRIPOS>SUBSTRUCTURE
     1 FIL         1

