### 
### Created by X-TOOL on Mon Sep 10 21:12:51 2018
### 

@<TRIPOS>MOLECULE
1xm4_ligand
   43    45     1     0     0
SMALL
GAST_HUCK


@<TRIPOS>ATOM
      1 CL25       84.2230    4.1420   62.1940 Cl        1 PIL        -0.0731
      2 C24        83.7590    3.1500   60.8640 C.ar      1 PIL         0.0873
      3 C23        82.4610    3.2340   60.4140 C.ar      1 PIL         0.0077
      4 N22        82.1200    2.4890   59.3530 N.ar      1 PIL        -0.3187
      5 C21        83.0170    1.6920   58.7430 C.ar      1 PIL         0.0077
      6 C19        84.3220    1.6080   59.2090 C.ar      1 PIL         0.0873
      7 CL20       85.4620    0.5040   58.4430 Cl        1 PIL        -0.0731
      8 C18        84.7170    2.3150   60.3070 C.ar      1 PIL         0.1144
      9 N16        86.0210    2.2750   60.8080 N.am      1 PIL        -0.2241
     10 C15        86.2890    1.8620   62.0590 C.2       1 PIL         0.2263
     11 O17        85.4190    1.5040   62.8300 O.2       1 PIL        -0.3758
     12 C14        87.6950    1.9120   62.5860 C.ar      1 PIL         0.0368
     13 C13        88.7810    2.2920   61.7990 C.ar      1 PIL        -0.0609
     14 C12        90.0540    2.3500   62.3450 C.ar      1 PIL        -0.0348
     15 C9         90.2810    2.0350   63.6840 C.ar      1 PIL         0.1252
     16 O10        91.5310    2.0800   64.3100 O.3       1 PIL        -0.3213
     17 C11        92.7290    2.3910   63.5910 C.3       1 PIL         0.0582
     18 C2         89.2070    1.6580   64.4510 C.ar      1 PIL         0.1260
     19 C1         87.9190    1.5910   63.9060 C.ar      1 PIL        -0.0211
     20 O3         89.4720    1.3550   65.7500 O.3       1 PIL        -0.3174
     21 C4         88.4730    0.7980   66.6020 C.3       1 PIL         0.0788
     22 C5         87.4590    1.8730   66.9680 C.3       1 PIL        -0.0226
     23 C6         87.9550    2.4290   68.2830 C.3       1 PIL        -0.0503
     24 C7         88.6440    1.2750   68.9620 C.3       1 PIL        -0.0503
     25 C8         89.1190    0.3490   67.8870 C.3       1 PIL        -0.0226
     26 H1         81.7395    3.8802   60.9007 H         1 PIL         0.0777
     27 H2         82.7173    1.1098   57.8791 H         1 PIL         0.0777
     28 H3         86.7765    2.5618   60.2190 H         1 PIL         0.2309
     29 H4         88.6295    2.5433   60.7555 H         1 PIL         0.0551
     30 H5         90.8883    2.6457   61.7192 H         1 PIL         0.0524
     31 H6         93.5862    2.3691   64.2800 H         1 PIL         0.0575
     32 H7         92.6406    3.3937   63.1474 H         1 PIL         0.0575
     33 H8         92.8809    1.6492   62.7931 H         1 PIL         0.0575
     34 H9         87.0884    1.2828   64.5307 H         1 PIL         0.0557
     35 H10        87.9766   -0.0465   66.1016 H         1 PIL         0.0645
     36 H11        86.4555    1.4377   67.0837 H         1 PIL         0.0294
     37 H12        87.4312    2.6592   66.1992 H         1 PIL         0.0294
     38 H13        87.1129    2.7886   68.8925 H         1 PIL         0.0266
     39 H14        88.6621    3.2540   68.1114 H         1 PIL         0.0266
     40 H15        87.9390    0.7524   69.6252 H         1 PIL         0.0266
     41 H16        89.4990    1.6397   69.5502 H         1 PIL         0.0266
     42 H17        90.2141    0.4032   67.7984 H         1 PIL         0.0294
     43 H18        88.8205   -0.6840   68.1191 H         1 PIL         0.0294
@<TRIPOS>BOND
     1    1    2 1  
     2    2    3 ar 
     3    2    8 ar 
     4    3    4 ar 
     5    4    5 ar 
     6    5    6 ar 
     7    6    7 1  
     8    6    8 ar 
     9    8    9 1  
    10    9   10 am 
    11   10   11 2  
    12   10   12 1  
    13   12   13 ar 
    14   12   19 ar 
    15   13   14 ar 
    16   14   15 ar 
    17   15   16 1  
    18   15   18 ar 
    19   16   17 1  
    20   18   19 ar 
    21   18   20 1  
    22   20   21 1  
    23   21   22 1  
    24   21   25 1  
    25   22   23 1  
    26   23   24 1  
    27   24   25 1  
    28    3   26 1  
    29    5   27 1  
    30    9   28 1  
    31   13   29 1  
    32   14   30 1  
    33   17   31 1  
    34   17   32 1  
    35   17   33 1  
    36   19   34 1  
    37   21   35 1  
    38   22   36 1  
    39   22   37 1  
    40   23   38 1  
    41   23   39 1  
    42   24   40 1  
    43   24   41 1  
    44   25   42 1  
    45   25   43 1  
@<TRIPOS>SUBSTRUCTURE
     1 PIL         1

