### 
### Created by X-TOOL on Mon Sep 10 21:12:51 2018
### 

@<TRIPOS>MOLECULE
1xm6_ligand
   38    39     1     0     0
SMALL
GAST_HUCK


@<TRIPOS>ATOM
      1 O19        50.7850    2.2010  -10.0540 O.2       1 5RM        -0.3783
      2 C4         49.7650    2.4050   -9.3980 C.2       1 5RM         0.3080
      3 O5         48.9710    1.2920   -8.9670 O.3       1 5RM        -0.3048
      4 N3         49.5030    3.4380   -8.5800 N.am      1 5RM        -0.2707
      5 C2         48.4580    3.1390   -7.6190 C.3       1 5RM         0.0347
      6 C1         47.9970    1.7310   -8.0280 C.3       1 5RM         0.0875
      7 C18        48.0490    0.7240   -6.8730 C.3       1 5RM        -0.0622
      8 C6         46.6100    1.7270   -8.6360 C.ar      1 5RM        -0.0423
      9 C7         45.5100    2.1740   -7.8950 C.ar      1 5RM        -0.0520
     10 C8         44.2280    2.1600   -8.4410 C.ar      1 5RM        -0.0023
     11 C9         44.0260    1.6590   -9.7300 C.ar      1 5RM         0.1614
     12 O10        42.7850    1.6190  -10.3080 O.3       1 5RM        -0.2970
     13 C11        41.5840    2.1170   -9.7040 C.3       1 5RM         0.0673
     14 C12        45.1160    1.2070  -10.4870 C.ar      1 5RM         0.1532
     15 C17        46.3930    1.2410   -9.9260 C.ar      1 5RM        -0.0172
     16 O13        44.8880    0.7470  -11.7810 O.3       1 5RM        -0.3124
     17 C14        45.9050    0.1950  -12.6180 C.3       1 5RM         0.0691
     18 C15        45.3630    0.0630  -14.0400 C.3       1 5RM        -0.0282
     19 C16        45.1150    1.4450  -14.5960 C.3       1 5RM        -0.0629
     20 H1         49.9767    4.3174   -8.6282 H         1 5RM         0.1856
     21 H2         47.6327    3.8621   -7.6960 H         1 5RM         0.0426
     22 H3         48.8535    3.1419   -6.5926 H         1 5RM         0.0426
     23 H4         47.3136    1.0078   -6.1057 H         1 5RM         0.0139
     24 H5         49.0569    0.7231   -6.4323 H         1 5RM         0.0139
     25 H6         47.8137   -0.2814   -7.2522 H         1 5RM         0.0139
     26 H7         45.6571    2.5356   -6.8837 H         1 5RM         0.0763
     27 H8         43.3891    2.5369   -7.8672 H         1 5RM         0.0631
     28 H9         40.7366    1.9568  -10.3868 H         1 5RM         0.0594
     29 H10        41.6939    3.1927   -9.5021 H         1 5RM         0.0594
     30 H11        41.4000    1.5836   -8.7598 H         1 5RM         0.0594
     31 H12        47.2358    0.8817  -10.5054 H         1 5RM         0.0699
     32 H13        46.1950   -0.7967  -12.2406 H         1 5RM         0.0610
     33 H14        46.7825    0.8583  -12.6182 H         1 5RM         0.0610
     34 H15        44.4207   -0.5043  -14.0254 H         1 5RM         0.0288
     35 H16        46.0974   -0.4621  -14.6684 H         1 5RM         0.0288
     36 H17        44.7240    1.3631  -15.6209 H         1 5RM         0.0231
     37 H18        46.0585    2.0103  -14.6076 H         1 5RM         0.0231
     38 H19        44.3818    1.9681  -13.9646 H         1 5RM         0.0231
@<TRIPOS>BOND
     1    1    2 2  
     2    2    3 1  
     3    2    4 am 
     4    3    6 1  
     5    4    5 1  
     6    5    6 1  
     7    6    7 1  
     8    6    8 1  
     9    8    9 ar 
    10    8   15 ar 
    11    9   10 ar 
    12   10   11 ar 
    13   11   12 1  
    14   11   14 ar 
    15   12   13 1  
    16   14   15 ar 
    17   14   16 1  
    18   16   17 1  
    19   17   18 1  
    20   18   19 1  
    21    4   20 1  
    22    5   21 1  
    23    5   22 1  
    24    7   23 1  
    25    7   24 1  
    26    7   25 1  
    27    9   26 1  
    28   10   27 1  
    29   13   28 1  
    30   13   29 1  
    31   13   30 1  
    32   15   31 1  
    33   17   32 1  
    34   17   33 1  
    35   18   34 1  
    36   18   35 1  
    37   19   36 1  
    38   19   37 1  
    39   19   38 1  
@<TRIPOS>SUBSTRUCTURE
     1 5RM         1

