### 
### Created by X-TOOL on Mon Sep 10 21:12:51 2018
### 

@<TRIPOS>MOLECULE
1xmu_ligand
   40    42     1     0     0
SMALL
GAST_HUCK


@<TRIPOS>ATOM
      1 O24         4.4280    0.3650   41.8850 O.2       1 ROF        -0.3758
      2 C23         2.3910   -0.5140   35.5470 C.3       1 ROF        -0.0475
      3 C22         1.0160    0.1900   35.6830 C.3       1 ROF        -0.0475
      4 C21         1.4290   -0.8940   36.6280 C.3       1 ROF        -0.0136
      5 C8          3.5200    0.7620   42.5870 C.2       1 ROF         0.2263
      6 C9          2.1230    0.7120   42.0010 C.ar      1 ROF         0.0368
      7 C10         0.9830    1.0520   42.7430 C.ar      1 ROF        -0.0609
      8 C11        -0.2920    1.0000   42.1920 C.ar      1 ROF        -0.0346
      9 C12        -0.4750    0.5980   40.8680 C.ar      1 ROF         0.1317
     10 O15        -1.7080    0.5380   40.2430 O.3       1 ROF        -0.2569
     11 C16        -2.9620    0.7270   40.8870 C.3       1 ROF         0.3654
     12 F18        -3.0240   -0.1500   41.9380 F         1 ROF        -0.1739
     13 F17        -3.0500    2.0240   41.3060 F         1 ROF        -0.1739
     14 C13         0.7300    0.2320   40.0710 C.ar      1 ROF         0.1258
     15 O19         0.5840   -0.1420   38.7530 O.3       1 ROF        -0.3204
     16 C20         1.4790   -1.0570   38.1150 C.3       1 ROF         0.0708
     17 C14         1.9840    0.3080   40.6860 C.ar      1 ROF        -0.0211
     18 N7          3.7290    1.2440   43.8220 N.am      1 ROF        -0.2241
     19 C6          4.9740    1.3930   44.3390 C.ar      1 ROF         0.1144
     20 C5          6.0470    2.2670   43.7880 C.ar      1 ROF         0.0873
     21 CL26        5.7890    3.2470   42.4060 Cl        1 ROF        -0.0731
     22 C4          7.2800    2.3210   44.4270 C.ar      1 ROF         0.0077
     23 N3          7.5270    1.6060   45.5450 N.ar      1 ROF        -0.3187
     24 C2          6.6240    0.7910   46.1170 C.ar      1 ROF         0.0077
     25 C1          5.3540    0.6450   45.5710 C.ar      1 ROF         0.0873
     26 CL25        4.2390   -0.4060   46.3360 Cl        1 ROF        -0.0731
     27 H1          3.3164    0.0266   35.7948 H         1 ROF         0.0269
     28 H2          2.5806   -1.2005   34.7087 H         1 ROF         0.0269
     29 H3          0.2244    0.0059   34.9418 H         1 ROF         0.0269
     30 H4          0.9601    1.2330   36.0279 H         1 ROF         0.0269
     31 H5          0.9242   -1.8387   36.3775 H         1 ROF         0.0326
     32 H6          1.0991    1.3640   43.7746 H         1 ROF         0.0551
     33 H7         -1.1503    1.2736   42.7949 H         1 ROF         0.0524
     34 H8         -3.7823    0.5166   40.1850 H         1 ROF         0.1418
     35 H9          2.5036   -0.8638   38.4654 H         1 ROF         0.0612
     36 H10         1.1902   -2.0859   38.3756 H         1 ROF         0.0612
     37 H11         2.8685    0.0437   40.1178 H         1 ROF         0.0557
     38 H12         2.9402    1.5020   44.3798 H         1 ROF         0.2309
     39 H13         8.0612    2.9517   44.0183 H         1 ROF         0.0777
     40 H14         6.8889    0.2419   47.0133 H         1 ROF         0.0777
@<TRIPOS>BOND
     1    5    1 2  
     2    3    2 1  
     3    4    2 1  
     4    4    3 1  
     5   16    4 1  
     6    6    5 1  
     7    5   18 am 
     8    6    7 ar 
     9   17    6 ar 
    10    8    7 ar 
    11    9    8 ar 
    12    9   10 1  
    13   14    9 ar 
    14   10   11 1  
    15   11   12 1  
    16   11   13 1  
    17   15   14 1  
    18   14   17 ar 
    19   15   16 1  
    20   18   19 1  
    21   19   20 ar 
    22   19   25 ar 
    23   20   21 1  
    24   20   22 ar 
    25   22   23 ar 
    26   23   24 ar 
    27   24   25 ar 
    28   25   26 1  
    29    2   27 1  
    30    2   28 1  
    31    3   29 1  
    32    3   30 1  
    33    4   31 1  
    34    7   32 1  
    35    8   33 1  
    36   11   34 1  
    37   16   35 1  
    38   16   36 1  
    39   17   37 1  
    40   18   38 1  
    41   22   39 1  
    42   24   40 1  
@<TRIPOS>SUBSTRUCTURE
     1 ROF         1

