### 
### Created by X-TOOL on Mon Sep 10 21:12:52 2018
### 

@<TRIPOS>MOLECULE
1xmy_ligand
   41    43     1     0     0
SMALL
GAST_HUCK


@<TRIPOS>ATOM
      1 C5         42.7690    1.9210   61.6930 C.ar      1 ROL        -0.0554
      2 C6         42.8690    1.6580   63.0710 C.ar      1 ROL        -0.0393
      3 C7         44.1190    1.4740   63.7140 C.ar      1 ROL         0.1139
      4 C8         45.2880    1.5110   62.9460 C.ar      1 ROL         0.1122
      5 C9         45.1830    1.7440   61.5780 C.ar      1 ROL        -0.0479
      6 C10        43.9520    1.9370   60.9670 C.ar      1 ROL        -0.0796
      7 C3         41.4730    2.1000   60.8260 C.3       1 ROL         0.0221
      8 C2         40.4790    1.0970   61.4040 C.3       1 ROL         0.0499
      9 C1         39.7570    2.0300   62.2930 C.2       1 ROL         0.1782
     10 O1         38.9610    1.6460   63.1230 O.2       1 ROL        -0.3969
     11 N1         40.1640    3.2950   62.0950 N.am      1 ROL        -0.2847
     12 C4         40.9230    3.5040   60.8930 C.3       1 ROL         0.0437
     13 O3         44.2790    1.2380   65.1040 O.3       1 ROL        -0.3201
     14 C11        43.1130    1.3130   65.9190 C.3       1 ROL         0.0787
     15 C15        42.5890   -0.0590   66.3550 C.3       1 ROL        -0.0226
     16 C14        42.6170    0.0890   67.9000 C.3       1 ROL        -0.0503
     17 C13        43.9760    0.7200   68.1660 C.3       1 ROL        -0.0503
     18 C12        43.9160    1.8620   67.1350 C.3       1 ROL        -0.0226
     19 O2         46.5620    1.3250   63.5180 O.3       1 ROL        -0.3294
     20 C16        47.7590    1.9950   63.0260 C.3       1 ROL         0.0554
     21 H1         41.9614    1.5939   63.6602 H         1 ROL         0.0450
     22 H2         46.0837    1.7755   60.9757 H         1 ROL         0.0493
     23 H3         43.9134    2.1043   59.8967 H         1 ROL         0.0436
     24 H4         41.6897    1.8571   59.7753 H         1 ROL         0.0483
     25 H5         40.9758    0.2886   61.9605 H         1 ROL         0.0526
     26 H6         39.8254    0.6635   60.6327 H         1 ROL         0.0526
     27 H7         39.9548    4.0343   62.7350 H         1 ROL         0.1852
     28 H8         40.2924    3.7577   60.0281 H         1 ROL         0.0544
     29 H9         41.7081    4.2654   61.0103 H         1 ROL         0.0544
     30 H10        42.3145    1.9586   65.5244 H         1 ROL         0.0645
     31 H11        43.2496   -0.8702   66.0151 H         1 ROL         0.0294
     32 H12        41.5686   -0.2377   65.9850 H         1 ROL         0.0294
     33 H13        42.5348   -0.8916   68.3915 H         1 ROL         0.0266
     34 H14        41.8039    0.7430   68.2481 H         1 ROL         0.0266
     35 H15        44.8018    0.0227   67.9617 H         1 ROL         0.0266
     36 H16        44.0612    1.0977   69.1956 H         1 ROL         0.0266
     37 H17        43.4055    2.7364   67.5648 H         1 ROL         0.0294
     38 H18        44.9316    2.1470   66.8231 H         1 ROL         0.0294
     39 H19        48.6250    1.6903   63.6320 H         1 ROL         0.0570
     40 H20        47.6256    3.0844   63.0989 H         1 ROL         0.0570
     41 H21        47.9300    1.7159   61.9758 H         1 ROL         0.0570
@<TRIPOS>BOND
     1    1    2 ar 
     2    1    6 ar 
     3    1    7 1  
     4    2    3 ar 
     5    3    4 ar 
     6    3   13 1  
     7    4    5 ar 
     8    4   19 1  
     9    5    6 ar 
    10    7    8 1  
    11    7   12 1  
    12    8    9 1  
    13    9   10 2  
    14    9   11 am 
    15   11   12 1  
    16   13   14 1  
    17   14   15 1  
    18   14   18 1  
    19   15   16 1  
    20   16   17 1  
    21   17   18 1  
    22   19   20 1  
    23    2   21 1  
    24    5   22 1  
    25    6   23 1  
    26    7   24 1  
    27    8   25 1  
    28    8   26 1  
    29   11   27 1  
    30   12   28 1  
    31   12   29 1  
    32   14   30 1  
    33   15   31 1  
    34   15   32 1  
    35   16   33 1  
    36   16   34 1  
    37   17   35 1  
    38   17   36 1  
    39   18   37 1  
    40   18   38 1  
    41   20   39 1  
    42   20   40 1  
    43   20   41 1  
@<TRIPOS>SUBSTRUCTURE
     1 ROL         1

