### 
### Created by X-TOOL on Mon Sep 10 21:12:51 2018
### 

@<TRIPOS>MOLECULE
1xn0_ligand
   41    43     1     0     0
SMALL
GAST_HUCK


@<TRIPOS>ATOM
      1 O3          5.4350    4.4550   -9.1140 O.2       1 ROL        -0.3969
      2 C2          4.7820    3.4790   -8.8130 C.2       1 ROL         0.1782
      3 C1          3.8900    3.4670   -7.6060 C.3       1 ROL         0.0499
      4 N4          5.0870    2.2080   -9.1200 N.am      1 ROL        -0.2847
      5 C5          4.5170    1.2500   -8.1990 C.3       1 ROL         0.0437
      6 C6          3.3570    2.0860   -7.6230 C.3       1 ROL         0.0221
      7 C7          2.0360    2.0080   -8.4080 C.ar      1 ROL        -0.0554
      8 C8          1.9810    1.7080   -9.7740 C.ar      1 ROL        -0.0393
      9 C9          0.7420    1.6530  -10.4530 C.ar      1 ROL         0.1139
     10 C16        -0.4540    1.9000   -9.7610 C.ar      1 ROL         0.1122
     11 C19        -0.3980    2.1990   -8.4010 C.ar      1 ROL        -0.0479
     12 C20         0.8330    2.2510   -7.7370 C.ar      1 ROL        -0.0796
     13 O17        -1.6640    1.8410  -10.4500 O.3       1 ROL        -0.3294
     14 C18        -2.9050    2.4230   -9.9950 C.3       1 ROL         0.0554
     15 O10         0.6660    1.3550  -11.8140 O.3       1 ROL        -0.3201
     16 C11         1.9460    1.3530  -12.5160 C.3       1 ROL         0.0787
     17 C12         1.3500    1.9260  -13.6350 C.3       1 ROL        -0.0226
     18 C13         0.9090    0.8220  -14.6110 C.3       1 ROL        -0.0503
     19 C14         1.2550   -0.4810  -13.8590 C.3       1 ROL        -0.0503
     20 C15         2.3830   -0.0700  -12.8790 C.3       1 ROL        -0.0226
     21 H1          3.0819    4.2073   -7.7002 H         1 ROL         0.0526
     22 H2          4.4610    3.6625   -6.6864 H         1 ROL         0.0526
     23 H3          5.6505    1.9504   -9.9049 H         1 ROL         0.1852
     24 H4          5.2351    0.9571   -7.4189 H         1 ROL         0.0544
     25 H5          4.1532    0.3513   -8.7186 H         1 ROL         0.0544
     26 H6          3.1521    1.7526   -6.5950 H         1 ROL         0.0483
     27 H7          2.8989    1.5156  -10.3177 H         1 ROL         0.0450
     28 H8         -1.3136    2.3925   -7.8540 H         1 ROL         0.0493
     29 H9          0.8546    2.4849   -6.6787 H         1 ROL         0.0436
     30 H10        -3.6955    2.2248  -10.7338 H         1 ROL         0.0570
     31 H11        -2.7786    3.5092   -9.8757 H         1 ROL         0.0570
     32 H12        -3.1861    1.9783   -9.0290 H         1 ROL         0.0570
     33 H13         2.7532    1.9294  -12.0404 H         1 ROL         0.0645
     34 H14         2.0720    2.5886  -14.1347 H         1 ROL         0.0294
     35 H15         0.4717    2.5099  -13.3227 H         1 ROL         0.0294
     36 H16         1.4646    0.8891  -15.5580 H         1 ROL         0.0266
     37 H17        -0.1703    0.8843  -14.8139 H         1 ROL         0.0266
     38 H18         1.6088   -1.2525  -14.5587 H         1 ROL         0.0266
     39 H19         0.3798   -0.8579  -13.3095 H         1 ROL         0.0266
     40 H20         2.4084   -0.7234  -11.9945 H         1 ROL         0.0294
     41 H21         3.3676   -0.0781  -13.3693 H         1 ROL         0.0294
@<TRIPOS>BOND
     1    1    2 2  
     2    2    3 1  
     3    2    4 am 
     4    3    6 1  
     5    4    5 1  
     6    5    6 1  
     7    6    7 1  
     8    7    8 ar 
     9    7   12 ar 
    10    8    9 ar 
    11    9   10 ar 
    12    9   15 1  
    13   10   11 ar 
    14   10   13 1  
    15   11   12 ar 
    16   13   14 1  
    17   15   16 1  
    18   16   17 1  
    19   16   20 1  
    20   17   18 1  
    21   18   19 1  
    22   19   20 1  
    23    3   21 1  
    24    3   22 1  
    25    4   23 1  
    26    5   24 1  
    27    5   25 1  
    28    6   26 1  
    29    8   27 1  
    30   11   28 1  
    31   12   29 1  
    32   14   30 1  
    33   14   31 1  
    34   14   32 1  
    35   16   33 1  
    36   17   34 1  
    37   17   35 1  
    38   18   36 1  
    39   18   37 1  
    40   19   38 1  
    41   19   39 1  
    42   20   40 1  
    43   20   41 1  
@<TRIPOS>SUBSTRUCTURE
     1 ROL         1

