### 
### Created by X-TOOL on Mon Sep 10 21:12:53 2018
### 

@<TRIPOS>MOLECULE
1xnx_ligand
   50    53     1     0     0
SMALL
GAST_HUCK


@<TRIPOS>ATOM
      1 O1         13.2040   26.3340   77.7700 O.3       1 ATE        -0.3918
      2 C3         11.9670   26.3850   77.0590 C.3       1 ATE         0.0555
      3 C2         12.2530   27.1930   75.7730 C.3       1 ATE        -0.0263
      4 C1         12.3650   28.7020   76.0320 C.3       1 ATE        -0.0448
      5 C4         10.9860   26.9480   78.1110 C.3       1 ATE        -0.0235
      6 C5         11.2160   28.4660   78.3170 C.3       1 ATE        -0.0330
      7 C6         10.1940   28.9870   79.3460 C.3       1 ATE        -0.0494
      8 C10        11.3020   29.3260   76.9900 C.3       1 ATE        -0.0260
      9 C19         9.9350   29.2260   76.2150 C.3       1 ATE        -0.0590
     10 C9         11.5190   30.8630   77.2590 C.3       1 ATE        -0.0341
     11 C11        11.6170   31.7630   76.0000 C.3       1 ATE        -0.0605
     12 C8         10.4320   31.3510   78.3060 C.3       1 ATE        -0.0415
     13 C7         10.3320   30.4930   79.5950 C.3       1 ATE        -0.0502
     14 C14        10.6110   32.8710   78.5900 C.3       1 ATE        -0.0466
     15 C15         9.7350   33.6390   79.5780 C.3       1 ATE         0.0155
     16 C13        10.7240   33.7830   77.3240 C.3       1 ATE        -0.0624
     17 C12        11.7670   33.2680   76.3070 C.3       1 ATE        -0.0878
     18 C18         9.3690   33.9500   76.5540 C.3       1 ATE        -0.1000
     19 C17        10.8660   35.0740   78.1100 C.2       1 ATE        -0.0845
     20 C16        10.3450   35.0090   79.3560 C.2       1 ATE        -0.0172
     21 H1         13.0850   25.8449   78.5757 H         1 ATE         0.2098
     22 H2         11.6287   25.3807   76.7642 H         1 ATE         0.0593
     23 H3         11.4347   27.0187   75.0589 H         1 ATE         0.0290
     24 H4         13.1999   26.8396   75.3390 H         1 ATE         0.0290
     25 H5         12.2823   29.2144   75.0622 H         1 ATE         0.0271
     26 H6         13.3580   28.8939   76.4646 H         1 ATE         0.0271
     27 H7         11.1426   26.4262   79.0666 H         1 ATE         0.0293
     28 H8          9.9542   26.7825   77.7676 H         1 ATE         0.0293
     29 H9         12.2059   28.5645   78.7863 H         1 ATE         0.0307
     30 H10        10.3481   28.4561   80.2970 H         1 ATE         0.0268
     31 H11         9.1801   28.7822   78.9718 H         1 ATE         0.0268
     32 H12         9.9920   29.8226   75.2926 H         1 ATE         0.0235
     33 H13         9.1240   29.6106   76.8509 H         1 ATE         0.0235
     34 H14         9.7341   28.1750   75.9600 H         1 ATE         0.0235
     35 H15        12.4967   30.9526   77.7550 H         1 ATE         0.0308
     36 H16        10.7035   31.6222   75.4036 H         1 ATE         0.0257
     37 H17        12.4907   31.4420   75.4139 H         1 ATE         0.0257
     38 H18         9.4582   31.2417   77.8062 H         1 ATE         0.0298
     39 H19        11.2411   30.6610   80.1910 H         1 ATE         0.0268
     40 H20         9.4529   30.8293   80.1643 H         1 ATE         0.0268
     41 H21        11.6084   32.8980   79.0531 H         1 ATE         0.0216
     42 H22         9.8616   33.2865   80.6123 H         1 ATE         0.0683
     43 H23         8.6694   33.6058   79.3071 H         1 ATE         0.0683
     44 H24        11.6496   33.8306   75.3691 H         1 ATE         0.0121
     45 H25        12.7726   33.4438   76.7167 H         1 ATE         0.0121
     46 H26         8.5967   34.3167   77.2462 H         1 ATE         0.0084
     47 H27         9.0597   32.9785   76.1410 H         1 ATE         0.0084
     48 H28         9.4995   34.6720   75.7345 H         1 ATE         0.0084
     49 H29        11.3421   35.9673   77.7085 H         1 ATE         0.0465
     50 H30        10.3611   35.8160   80.0870 H         1 ATE         0.1530
@<TRIPOS>BOND
     1    1    2 1  
     2    2    3 1  
     3    2    5 1  
     4    3    4 1  
     5    4    8 1  
     6    5    6 1  
     7    6    7 1  
     8    6    8 1  
     9    7   13 1  
    10    8    9 1  
    11    8   10 1  
    12   10   11 1  
    13   10   12 1  
    14   11   17 1  
    15   12   13 1  
    16   12   14 1  
    17   14   15 1  
    18   14   16 1  
    19   15   20 1  
    20   16   17 1  
    21   16   18 1  
    22   16   19 1  
    23   19   20 2  
    24    1   21 1  
    25    2   22 1  
    26    3   23 1  
    27    3   24 1  
    28    4   25 1  
    29    4   26 1  
    30    5   27 1  
    31    5   28 1  
    32    6   29 1  
    33    7   30 1  
    34    7   31 1  
    35    9   32 1  
    36    9   33 1  
    37    9   34 1  
    38   10   35 1  
    39   11   36 1  
    40   11   37 1  
    41   12   38 1  
    42   13   39 1  
    43   13   40 1  
    44   14   41 1  
    45   15   42 1  
    46   15   43 1  
    47   17   44 1  
    48   17   45 1  
    49   18   46 1  
    50   18   47 1  
    51   18   48 1  
    52   19   49 1  
    53   20   50 1  
@<TRIPOS>SUBSTRUCTURE
     1 ATE         1

