### 
### Created by X-TOOL on Mon Sep 10 21:12:52 2018
### 

@<TRIPOS>MOLECULE
1xnz_ligand
   21    22     1     0     0
SMALL
GAST_HUCK


@<TRIPOS>ATOM
      1 OA         -1.7430   -0.9210    8.2900 O.3       1 FCD        -0.2487
      2 CA         -0.6720   -0.6120    9.0320 C.2       1 FCD         0.1495
      3 C           0.6840   -0.4120    8.4630 C.2       1 FCD         0.0931
      4 OB          0.7990   -0.5480    7.2320 O.co2     1 FCD        -0.5608
      5 CB         -1.0830   -0.5240   10.3760 C.2       1 FCD        -0.0448
      6 CG         -2.4570   -0.7990   10.4000 C.2       1 FCD        -0.0487
      7 CD         -2.8360   -1.0440    9.0650 C.2       1 FCD         0.1250
      8 OXT         1.6290   -0.1280    9.2070 O.co2     1 FCD        -0.5608
      9 C1         -4.1460   -1.3850    8.5250 C.ar      1 FCD         0.0249
     10 C2         -4.1870   -2.3800    7.5030 C.ar      1 FCD        -0.0537
     11 C3         -5.4150   -2.7640    6.9190 C.ar      1 FCD        -0.0635
     12 C4         -6.6050   -2.1520    7.3560 C.ar      1 FCD        -0.0635
     13 C5         -6.5910   -1.1630    8.3680 C.ar      1 FCD        -0.0497
     14 C6         -5.3700   -0.7670    8.9640 C.ar      1 FCD         0.0480
     15 CL2        -5.4030    0.4160   10.1620 Cl        1 FCD        -0.0713
     16 H1         -0.4537   -0.2875   11.2327 H         1 FCD         0.0419
     17 H2         -3.1034   -0.8193   11.2762 H         1 FCD         0.0398
     18 H3         -3.2663   -2.8462    7.1712 H         1 FCD         0.0605
     19 H4         -5.4404   -3.5210    6.1435 H         1 FCD         0.0613
     20 H5         -7.5487   -2.4435    6.9094 H         1 FCD         0.0598
     21 H6         -7.5204   -0.7063    8.6884 H         1 FCD         0.0617
@<TRIPOS>BOND
     1    1    2 1  
     2    1    7 1  
     3    2    3 1  
     4    2    5 2  
     5    3    4 ar 
     6    3    8 ar 
     7    5    6 1  
     8    6    7 2  
     9    7    9 1  
    10    9   10 ar 
    11    9   14 ar 
    12   10   11 ar 
    13   11   12 ar 
    14   12   13 ar 
    15   13   14 ar 
    16   14   15 1  
    17    5   16 1  
    18    6   17 1  
    19   10   18 1  
    20   11   19 1  
    21   12   20 1  
    22   13   21 1  
@<TRIPOS>SUBSTRUCTURE
     1 FCD         1

