### 
### Created by X-TOOL on Mon Sep 10 21:12:53 2018
### 

@<TRIPOS>MOLECULE
1xo2_ligand
   31    33     1     0     0
SMALL
GAST_HUCK


@<TRIPOS>ATOM
      1 C6         -3.3430   37.3090  140.4710 C.ar      1 FSE        -0.0369
      2 C5         -2.2480   36.9270  141.3070 C.ar      1 FSE        -0.0588
      3 C10        -0.8130   36.9320  140.8240 C.ar      1 FSE         0.0525
      4 C9         -0.6730   37.3920  139.4240 C.ar      1 FSE         0.1279
      5 C8         -1.7940   37.7850  138.5820 C.ar      1 FSE         0.0057
      6 C7         -3.1420   37.7120  139.1040 C.ar      1 FSE         0.0855
      7 C4          0.3860   36.5050  141.5920 C.2       1 FSE         0.1499
      8 C3          1.7430   36.5530  140.8980 C.2       1 FSE         0.1619
      9 C2          1.8710   37.0080  139.5440 C.2       1 FSE         0.1536
     10 C1'         3.0270   37.1880  138.6610 C.ar      1 FSE        -0.0054
     11 C6'         4.3630   37.0660  139.1300 C.ar      1 FSE        -0.0720
     12 C5'         5.4560   37.2550  138.2600 C.ar      1 FSE        -0.0408
     13 C4'         5.2320   37.5670  136.8960 C.ar      1 FSE         0.1167
     14 C3'         3.9340   37.6800  136.3640 C.ar      1 FSE         0.1158
     15 C2'         2.8290   37.5000  137.2090 C.ar      1 FSE        -0.0332
     16 O1          0.6840   37.4160  138.8670 O.3       1 FSE        -0.2565
     17 O4          0.3500   36.0890  142.8010 O.2       1 FSE        -0.4096
     18 O3'         3.8500   38.0040  134.9950 O.3       1 FSE        -0.3371
     19 O4'         6.3100   37.7360  136.1160 O.3       1 FSE        -0.3363
     20 O3          2.8920   36.1430  141.6130 O.3       1 FSE        -0.3399
     21 O7         -4.2200   38.0240  138.2600 O.3       1 FSE        -0.3325
     22 H1         -4.3483   37.2948  140.8762 H         1 FSE         0.0481
     23 H2         -2.4531   36.6218  142.3267 H         1 FSE         0.0615
     24 H3         -1.6199   38.1305  137.5694 H         1 FSE         0.0483
     25 H4          4.5441   36.8243  140.1711 H         1 FSE         0.0496
     26 H5          6.4688   37.1616  138.6348 H         1 FSE         0.0514
     27 H6          1.8253   37.5872  136.8089 H         1 FSE         0.0495
     28 H7          3.3971   38.8330  134.8941 H         1 FSE         0.2442
     29 H8          7.0968   37.6249  136.6367 H         1 FSE         0.2450
     30 H9          2.6394   35.8727  142.4880 H         1 FSE         0.2420
     31 H10        -4.2205   37.4321  137.5169 H         1 FSE         0.2496
@<TRIPOS>BOND
     1    1    2 ar 
     2    1    6 ar 
     3    2    3 ar 
     4    3    4 ar 
     5    3    7 1  
     6    4    5 ar 
     7    4   16 1  
     8    5    6 ar 
     9    6   21 1  
    10    7    8 1  
    11    7   17 2  
    12    8    9 2  
    13    8   20 1  
    14    9   10 1  
    15    9   16 1  
    16   10   11 ar 
    17   10   15 ar 
    18   11   12 ar 
    19   12   13 ar 
    20   13   14 ar 
    21   13   19 1  
    22   14   15 ar 
    23   14   18 1  
    24    1   22 1  
    25    2   23 1  
    26    5   24 1  
    27   11   25 1  
    28   12   26 1  
    29   15   27 1  
    30   18   28 1  
    31   19   29 1  
    32   20   30 1  
    33   21   31 1  
@<TRIPOS>SUBSTRUCTURE
     1 FSE         1

