### 
### Created by X-TOOL on Mon Sep 10 21:12:53 2018
### 

@<TRIPOS>MOLECULE
1xoe_ligand
   45    45     1     0     0
SMALL
GAST_HUCK


@<TRIPOS>ATOM
      1 C1         24.4360   16.8070   63.3160 C.3       1 ABX         0.1113
      2 C2         25.5780   17.8010   63.0090 C.3       1 ABX         0.0237
      3 N1         25.5590   18.7420   64.1490 N.4       1 ABX         0.2468
      4 C3         24.2280   18.6770   64.7690 C.3       1 ABX         0.0332
      5 C4         23.3860   17.6660   63.9960 C.3       1 ABX         0.0288
      6 C5         23.5960   20.0830   64.7770 C.2       1 ABX         0.0847
      7 O1         22.3710   20.1060   65.3070 O.co2     1 ABX        -0.5643
      8 O2         24.1570   21.0380   64.3430 O.co2     1 ABX        -0.5643
      9 N2         26.9240   16.2120   61.6420 N.am      1 ABX        -0.2785
     10 C6         27.2550   14.8880   61.7710 C.2       1 ABX         0.1733
     11 C7         27.1250   14.0640   60.4930 C.3       1 ABX         0.0257
     12 O3         27.6210   14.3720   62.8090 O.2       1 ABX        -0.3974
     13 C8         26.9800   17.1600   62.7770 C.3       1 ABX         0.0872
     14 C9         27.7110   18.4480   62.2950 C.3       1 ABX        -0.0221
     15 C10        29.1930   18.1140   61.9780 C.3       1 ABX        -0.0444
     16 C11        29.7600   19.1560   60.9850 C.3       1 ABX        -0.0626
     17 C12        30.0360   18.1150   63.2680 C.3       1 ABX        -0.0626
     18 C13        23.8350   16.1050   62.0820 C.2       1 ABX         0.2424
     19 O4         23.3450   16.6550   61.1310 O.2       1 ABX        -0.3699
     20 O5         23.8390   14.7830   62.2630 O.3       1 ABX        -0.2798
     21 C14        23.2850   13.9020   61.2750 C.3       1 ABX         0.0658
     22 H1         24.8019   16.0322   64.0057 H         1 ABX         0.0614
     23 H2         25.3237   18.3488   62.0896 H         1 ABX         0.0904
     24 H3         25.7390   19.6786   63.8226 H         1 ABX         0.2035
     25 H4         26.2627   18.4794   64.8212 H         1 ABX         0.2035
     26 H5         24.3272   18.3326   65.8089 H         1 ABX         0.1027
     27 H6         22.7629   17.0666   64.6760 H         1 ABX         0.0369
     28 H7         22.7442   18.1674   63.2566 H         1 ABX         0.0369
     29 H8         26.6336   16.5501   60.7468 H         1 ABX         0.1856
     30 H9         27.4111   13.0218   60.6980 H         1 ABX         0.0467
     31 H10        27.7867   14.4805   59.7193 H         1 ABX         0.0467
     32 H11        26.0835   14.0957   60.1406 H         1 ABX         0.0467
     33 H12        27.4154   16.6986   63.6756 H         1 ABX         0.0614
     34 H13        27.6683   19.2115   63.0857 H         1 ABX         0.0292
     35 H14        27.2196   18.8310   61.3885 H         1 ABX         0.0292
     36 H15        29.2435   17.1153   61.5198 H         1 ABX         0.0296
     37 H16        30.8103   18.9166   60.7623 H         1 ABX         0.0232
     38 H17        29.6994   20.1593   61.4319 H         1 ABX         0.0232
     39 H18        29.1735   19.1330   60.0547 H         1 ABX         0.0232
     40 H19        29.6303   17.3732   63.9717 H         1 ABX         0.0232
     41 H20        30.0016   19.1137   63.7278 H         1 ABX         0.0232
     42 H21        31.0778   17.8587   63.0254 H         1 ABX         0.0232
     43 H22        23.3868   12.8605   61.6141 H         1 ABX         0.0577
     44 H23        23.8230   14.0324   60.3245 H         1 ABX         0.0577
     45 H24        22.2205   14.1377   61.1291 H         1 ABX         0.0577
@<TRIPOS>BOND
     1    2    1 1  
     2    1    5 1  
     3    1   18 1  
     4    2    3 1  
     5   13    2 1  
     6    3    4 1  
     7    4    5 1  
     8    4    6 1  
     9    6    7 ar 
    10    6    8 ar 
    11    9   10 am 
    12    9   13 1  
    13   10   11 1  
    14   10   12 2  
    15   13   14 1  
    16   14   15 1  
    17   15   16 1  
    18   15   17 1  
    19   18   19 2  
    20   18   20 1  
    21   20   21 1  
    22    1   22 1  
    23    2   23 1  
    24    3   24 1  
    25    3   25 1  
    26    4   26 1  
    27    5   27 1  
    28    5   28 1  
    29    9   29 1  
    30   11   30 1  
    31   11   31 1  
    32   11   32 1  
    33   13   33 1  
    34   14   34 1  
    35   14   35 1  
    36   15   36 1  
    37   16   37 1  
    38   16   38 1  
    39   16   39 1  
    40   17   40 1  
    41   17   41 1  
    42   17   42 1  
    43   21   43 1  
    44   21   44 1  
    45   21   45 1  
@<TRIPOS>SUBSTRUCTURE
     1 ABX         1

