### 
### Created by X-TOOL on Mon Sep 10 21:12:53 2018
### 

@<TRIPOS>MOLECULE
1xog_ligand
   43    43     1     0     0
SMALL
GAST_HUCK


@<TRIPOS>ATOM
      1 C1         24.4830   16.4930   63.0060 C.3       1 ABW         0.0923
      2 C13        25.3620   17.6270   62.4610 C.3       1 ABW         0.1049
      3 O6         25.4500   18.5300   63.5570 O.3       1 ABW        -0.3542
      4 C3         24.3470   18.3540   64.4150 C.3       1 ABW         0.1138
      5 C4         23.4660   17.2780   63.7970 C.3       1 ABW         0.0090
      6 C5         23.5920   19.6620   64.6450 C.2       1 ABW         0.0638
      7 O1         22.6040   19.6340   65.3560 O.co2     1 ABW        -0.5663
      8 O2         24.0330   20.6860   64.0940 O.co2     1 ABW        -0.5663
      9 N2         26.8100   16.3090   60.9210 N.am      1 ABW        -0.2814
     10 C6         27.1940   15.0070   61.0790 C.2       1 ABW         0.1732
     11 C7         27.0930   14.1490   59.8070 C.3       1 ABW         0.0257
     12 O4         27.5780   14.5440   62.1360 O.2       1 ABW        -0.3974
     13 C8         26.8220   17.2870   62.0190 C.3       1 ABW         0.0710
     14 C2         27.4680   18.5960   61.5060 C.3       1 ABW        -0.0250
     15 C9         28.7780   19.1620   62.1010 C.3       1 ABW        -0.0446
     16 C10        29.0500   20.4490   61.3160 C.3       1 ABW        -0.0626
     17 C15        28.6970   19.5270   63.6070 C.3       1 ABW        -0.0626
     18 C14        23.7800   15.6740   61.8930 C.2       1 ABW         0.2394
     19 O3         23.2170   16.1670   60.9490 O.2       1 ABW        -0.3700
     20 O5         23.8690   14.3570   62.1030 O.3       1 ABW        -0.2799
     21 C16        23.2740   13.4440   61.1790 C.3       1 ABW         0.0658
     22 H1         25.0636   15.8133   63.6470 H         1 ABW         0.0583
     23 H2         24.8485   18.0923   61.6067 H         1 ABW         0.0650
     24 H3         24.7087   17.9977   65.3908 H         1 ABW         0.0768
     25 H4         22.9864   16.6567   64.5677 H         1 ABW         0.0337
     26 H5         22.6947   17.7130   63.1444 H         1 ABW         0.0337
     27 H6         26.5069   16.6105   60.0170 H         1 ABW         0.1855
     28 H7         27.4209   13.1229   60.0299 H         1 ABW         0.0467
     29 H8         27.7357   14.5773   59.0238 H         1 ABW         0.0467
     30 H9         26.0502   14.1328   59.4574 H         1 ABW         0.0467
     31 H10        27.3908   16.8858   62.8707 H         1 ABW         0.0583
     32 H11        26.7093   19.3821   61.6337 H         1 ABW         0.0291
     33 H12        27.6602   18.4426   60.4339 H         1 ABW         0.0291
     34 H13        29.5909   18.4356   61.9539 H         1 ABW         0.0296
     35 H14        29.9756   20.9149   61.6851 H         1 ABW         0.0232
     36 H15        28.2096   21.1457   61.4514 H         1 ABW         0.0232
     37 H16        29.1603   20.2106   60.2478 H         1 ABW         0.0232
     38 H17        28.5018   18.6178   64.1946 H         1 ABW         0.0232
     39 H18        27.8820   20.2484   63.7662 H         1 ABW         0.0232
     40 H19        29.6497   19.9734   63.9279 H         1 ABW         0.0232
     41 H20        23.4506   12.4124   61.5176 H         1 ABW         0.0577
     42 H21        23.7218   13.5851   60.1842 H         1 ABW         0.0577
     43 H22        22.1915   13.6315   61.1238 H         1 ABW         0.0577
@<TRIPOS>BOND
     1    2    1 1  
     2    1    5 1  
     3    1   18 1  
     4    2    3 1  
     5   13    2 1  
     6    3    4 1  
     7    4    5 1  
     8    4    6 1  
     9    6    7 ar 
    10    6    8 ar 
    11    9   10 am 
    12    9   13 1  
    13   10   11 1  
    14   10   12 2  
    15   13   14 1  
    16   14   15 1  
    17   15   16 1  
    18   15   17 1  
    19   18   19 2  
    20   18   20 1  
    21   20   21 1  
    22    1   22 1  
    23    2   23 1  
    24    4   24 1  
    25    5   25 1  
    26    5   26 1  
    27    9   27 1  
    28   11   28 1  
    29   11   29 1  
    30   11   30 1  
    31   13   31 1  
    32   14   32 1  
    33   14   33 1  
    34   15   34 1  
    35   16   35 1  
    36   16   36 1  
    37   16   37 1  
    38   17   38 1  
    39   17   39 1  
    40   17   40 1  
    41   21   41 1  
    42   21   42 1  
    43   21   43 1  
@<TRIPOS>SUBSTRUCTURE
     1 ABW         1

