### 
### Created by X-TOOL on Mon Sep 10 21:12:51 2018
### 

@<TRIPOS>MOLECULE
1xom_ligand
   49    51     1     0     0
SMALL
GAST_HUCK


@<TRIPOS>ATOM
      1 O25        14.0820    5.8760   18.9490 O.co2     1 CIO        -0.5687
      2 C23        12.9580    6.1930   18.4940 C.2       1 CIO         0.0378
      3 O24        11.9790    6.3800   19.2400 O.co2     1 CIO        -0.5687
      4 C4         12.7620    6.3720   17.0060 C.3       1 CIO         0.0102
      5 C5         14.1000    6.6980   16.3470 C.3       1 CIO        -0.0456
      6 C6         13.9840    6.7830   14.8250 C.3       1 CIO        -0.0540
      7 C3         12.1490    5.1170   16.3770 C.3       1 CIO        -0.0456
      8 C2         12.0620    5.2080   14.8430 C.3       1 CIO        -0.0540
      9 C1         13.4250    5.4970   14.2070 C.3       1 CIO         0.0691
     10 C21        14.3230    4.3810   14.5570 C.1       1 CIO         0.0445
     11 N22        15.0350    3.5150   14.8530 N.1       1 CIO        -0.3168
     12 C7         13.4010    5.6650   12.6950 C.ar      1 CIO        -0.0481
     13 C8         12.2390    5.6860   11.9170 C.ar      1 CIO        -0.0525
     14 C9         12.3110    5.8530   10.5250 C.ar      1 CIO        -0.0023
     15 C10        13.5500    6.0030    9.9000 C.ar      1 CIO         0.1615
     16 O11        13.7090    6.1690    8.5440 O.3       1 CIO        -0.2970
     17 C12        12.6080    6.1300    7.6360 C.3       1 CIO         0.0673
     18 C13        14.6980    5.9850   10.6630 C.ar      1 CIO         0.1536
     19 C20        14.6230    5.8190   12.0450 C.ar      1 CIO        -0.0178
     20 O14        15.9040    6.1370   10.0270 O.3       1 CIO        -0.3092
     21 C15        17.1450    6.2900   10.7230 C.3       1 CIO         0.0802
     22 C16        18.2450    6.4290    9.6820 C.3       1 CIO        -0.0225
     23 C17        18.3420    7.9250    9.4170 C.3       1 CIO        -0.0503
     24 C18        17.8980    8.6320   10.6890 C.3       1 CIO        -0.0503
     25 C19        17.1920    7.5830   11.5340 C.3       1 CIO        -0.0225
     26 H1         12.0738    7.2144   16.8423 H         1 CIO         0.0465
     27 H2         14.8237    5.9106   16.6044 H         1 CIO         0.0277
     28 H3         14.4583    7.6648   16.7302 H         1 CIO         0.0277
     29 H4         14.9831    6.9710   14.4049 H         1 CIO         0.0170
     30 H5         13.3151    7.6176   14.5681 H         1 CIO         0.0170
     31 H6         11.1348    4.9799   16.7801 H         1 CIO         0.0277
     32 H7         12.7701    4.2493   16.6441 H         1 CIO         0.0277
     33 H8         11.3662    6.0164   14.5741 H         1 CIO         0.0170
     34 H9         11.6829    4.2525   14.4515 H         1 CIO         0.0170
     35 H10        11.2723    5.5721   12.3940 H         1 CIO         0.0763
     36 H11        11.4023    5.8655    9.9342 H         1 CIO         0.0631
     37 H12        12.9731    6.2860    6.6102 H         1 CIO         0.0594
     38 H13        11.8911    6.9232    7.8946 H         1 CIO         0.0594
     39 H14        12.1115    5.1507    7.7035 H         1 CIO         0.0594
     40 H15        15.5372    5.8096   12.6274 H         1 CIO         0.0699
     41 H16        17.3191    5.4215   11.3752 H         1 CIO         0.0647
     42 H17        17.9782    5.8889    8.7616 H         1 CIO         0.0294
     43 H18        19.1982    6.0418   10.0712 H         1 CIO         0.0294
     44 H19        17.6842    8.2039    8.5806 H         1 CIO         0.0266
     45 H20        19.3794    8.1993    9.1749 H         1 CIO         0.0266
     46 H21        17.2083    9.4541   10.4473 H         1 CIO         0.0266
     47 H22        18.7701    9.0313   11.2274 H         1 CIO         0.0266
     48 H23        17.7476    7.4190   12.4691 H         1 CIO         0.0294
     49 H24        16.1701    7.9160   11.7681 H         1 CIO         0.0294
@<TRIPOS>BOND
     1    1    2 ar 
     2    2    3 ar 
     3    2    4 1  
     4    4    5 1  
     5    4    7 1  
     6    5    6 1  
     7    6    9 1  
     8    7    8 1  
     9    8    9 1  
    10    9   10 1  
    11    9   12 1  
    12   10   11 3  
    13   12   13 ar 
    14   12   19 ar 
    15   13   14 ar 
    16   14   15 ar 
    17   15   16 1  
    18   15   18 ar 
    19   16   17 1  
    20   18   19 ar 
    21   18   20 1  
    22   20   21 1  
    23   21   22 1  
    24   21   25 1  
    25   22   23 1  
    26   23   24 1  
    27   24   25 1  
    28    4   26 1  
    29    5   27 1  
    30    5   28 1  
    31    6   29 1  
    32    6   30 1  
    33    7   31 1  
    34    7   32 1  
    35    8   33 1  
    36    8   34 1  
    37   13   35 1  
    38   14   36 1  
    39   17   37 1  
    40   17   38 1  
    41   17   39 1  
    42   19   40 1  
    43   21   41 1  
    44   22   42 1  
    45   22   43 1  
    46   23   44 1  
    47   23   45 1  
    48   24   46 1  
    49   24   47 1  
    50   25   48 1  
    51   25   49 1  
@<TRIPOS>SUBSTRUCTURE
     1 CIO         1

