### 
### Created by X-TOOL on Mon Sep 10 21:12:51 2018
### 

@<TRIPOS>MOLECULE
1xon_ligand
   43    45     1     0     0
SMALL
GAST_HUCK


@<TRIPOS>ATOM
      1 CL25        4.8180   -0.3840   53.4140 Cl        1 PIL        -0.0731
      2 C24         6.3430   -0.6150   52.6290 C.ar      1 PIL         0.0873
      3 C23         6.4520   -0.3840   51.2640 C.ar      1 PIL         0.0077
      4 N22         7.6250   -0.5180   50.5890 N.ar      1 PIL        -0.3187
      5 C21         8.7070   -0.9220   51.3160 C.ar      1 PIL         0.0077
      6 C19         8.6790   -1.1830   52.6810 C.ar      1 PIL         0.0873
      7 CL20       10.1090   -1.6900   53.4810 Cl        1 PIL        -0.0731
      8 C18         7.4680   -1.0280   53.3640 C.ar      1 PIL         0.1144
      9 N16         7.3310   -1.2610   54.7580 N.am      1 PIL        -0.2241
     10 C15         6.5570   -2.3080   55.2220 C.2       1 PIL         0.2263
     11 O17         5.9700   -3.0850   54.4740 O.2       1 PIL        -0.3758
     12 C14         6.4340   -2.4850   56.6950 C.ar      1 PIL         0.0368
     13 C13         7.2010   -1.7690   57.6320 C.ar      1 PIL        -0.0609
     14 C12         7.0280   -2.0040   59.0040 C.ar      1 PIL        -0.0348
     15 C9          6.0940   -2.9460   59.4660 C.ar      1 PIL         0.1252
     16 O10         5.9450   -3.1670   60.8120 O.3       1 PIL        -0.3213
     17 C11         6.6950   -2.4190   61.7860 C.3       1 PIL         0.0582
     18 C2          5.3210   -3.6530   58.5410 C.ar      1 PIL         0.1260
     19 C1          5.4960   -3.4260   57.1590 C.ar      1 PIL        -0.0211
     20 O3          4.4160   -4.5620   59.0510 O.3       1 PIL        -0.3174
     21 C4          3.6970   -5.3490   58.0790 C.3       1 PIL         0.0788
     22 C5          2.7320   -4.4030   57.5740 C.3       1 PIL        -0.0226
     23 C6          1.5180   -4.4480   58.4970 C.3       1 PIL        -0.0503
     24 C7          1.7050   -5.6610   59.3800 C.3       1 PIL        -0.0503
     25 C8          2.8790   -6.4240   58.7900 C.3       1 PIL        -0.0226
     26 H1          5.5667   -0.0849   50.7146 H         1 PIL         0.0777
     27 H2          9.6494   -1.0475   50.7952 H         1 PIL         0.0777
     28 H3          7.7982   -0.6629   55.4092 H         1 PIL         0.2309
     29 H4          7.9250   -1.0364   57.2941 H         1 PIL         0.0551
     30 H5          7.6247   -1.4497   59.7193 H         1 PIL         0.0524
     31 H6          6.4216   -2.7559   62.7968 H         1 PIL         0.0575
     32 H7          6.4658   -1.3482   61.6819 H         1 PIL         0.0575
     33 H8          7.7708   -2.5812   61.6239 H         1 PIL         0.0575
     34 H9          4.9001   -3.9838   56.4456 H         1 PIL         0.0557
     35 H10         4.3519   -5.7710   57.3025 H         1 PIL         0.0645
     36 H11         2.4361   -4.6784   56.5510 H         1 PIL         0.0294
     37 H12         3.1640   -3.3914   57.5710 H         1 PIL         0.0294
     38 H13         0.5941   -4.5440   57.9077 H         1 PIL         0.0266
     39 H14         1.4697   -3.5349   59.1085 H         1 PIL         0.0266
     40 H15         0.7991   -6.2849   59.3711 H         1 PIL         0.0266
     41 H16         1.9280   -5.3530   60.4122 H         1 PIL         0.0266
     42 H17         3.4706   -6.9054   59.5826 H         1 PIL         0.0294
     43 H18         2.5315   -7.1864   58.0773 H         1 PIL         0.0294
@<TRIPOS>BOND
     1    1    2 1  
     2    2    3 ar 
     3    2    8 ar 
     4    3    4 ar 
     5    4    5 ar 
     6    5    6 ar 
     7    6    7 1  
     8    6    8 ar 
     9    8    9 1  
    10    9   10 am 
    11   10   11 2  
    12   10   12 1  
    13   12   13 ar 
    14   12   19 ar 
    15   13   14 ar 
    16   14   15 ar 
    17   15   16 1  
    18   15   18 ar 
    19   16   17 1  
    20   18   19 ar 
    21   18   20 1  
    22   20   21 1  
    23   21   22 1  
    24   21   25 1  
    25   22   23 1  
    26   23   24 1  
    27   24   25 1  
    28    3   26 1  
    29    5   27 1  
    30    9   28 1  
    31   13   29 1  
    32   14   30 1  
    33   17   31 1  
    34   17   32 1  
    35   17   33 1  
    36   19   34 1  
    37   21   35 1  
    38   22   36 1  
    39   22   37 1  
    40   23   38 1  
    41   23   39 1  
    42   24   40 1  
    43   24   41 1  
    44   25   42 1  
    45   25   43 1  
@<TRIPOS>SUBSTRUCTURE
     1 PIL         1

