### 
### Created by X-TOOL on Mon Sep 10 21:12:51 2018
### 

@<TRIPOS>MOLECULE
1xoq_ligand
   40    42     1     0     0
SMALL
GAST_HUCK


@<TRIPOS>ATOM
      1 O24        14.4670   29.3330   55.4470 O.2       1 ROF        -0.3758
      2 C23        12.2940   34.0110   50.5240 C.3       1 ROF        -0.0475
      3 C22        13.2130   34.7760   51.4750 C.3       1 ROF        -0.0475
      4 C21        13.4880   33.3980   51.0880 C.3       1 ROF        -0.0136
      5 C8         14.3680   28.2670   54.8280 C.2       1 ROF         0.2263
      6 C9         14.1730   28.3350   53.3630 C.ar      1 ROF         0.0368
      7 C10        14.1450   27.2090   52.5320 C.ar      1 ROF        -0.0609
      8 C11        13.9400   27.3560   51.1490 C.ar      1 ROF        -0.0346
      9 C12        13.7900   28.6400   50.5920 C.ar      1 ROF         0.1317
     10 O15        13.5900   28.8740   49.2590 O.3       1 ROF        -0.2569
     11 C16        13.9070   27.8890   48.2820 C.3       1 ROF         0.3654
     12 F18        13.0380   26.8940   48.3900 F         1 ROF        -0.1739
     13 F17        15.1600   27.4650   48.4490 F         1 ROF        -0.1739
     14 C13        13.8040   29.7510   51.4160 C.ar      1 ROF         0.1258
     15 O19        13.6450   30.9910   50.8550 O.3       1 ROF        -0.3204
     16 C20        13.9570   32.1060   51.6840 C.3       1 ROF         0.0708
     17 C14        14.0010   29.5930   52.7940 C.ar      1 ROF        -0.0211
     18 N7         14.4570   27.0870   55.4590 N.am      1 ROF        -0.2241
     19 C6         14.6180   26.9290   56.8680 C.ar      1 ROF         0.1144
     20 C5         15.7500   26.3280   57.4250 C.ar      1 ROF         0.0873
     21 CL26       17.0390   25.8210   56.4070 Cl        1 ROF        -0.0731
     22 C4         15.8430   26.1570   58.8080 C.ar      1 ROF         0.0077
     23 N3         14.8460   26.5700   59.6120 N.ar      1 ROF        -0.3187
     24 C2         13.7380   27.1360   59.1220 C.ar      1 ROF         0.0077
     25 C1         13.5970   27.3190   57.7410 C.ar      1 ROF         0.0873
     26 CL25       12.1660   28.0480   57.1000 Cl        1 ROF        -0.0731
     27 H1         12.2576   34.2745   49.4567 H         1 ROF         0.0269
     28 H2         11.2960   33.6895   50.8565 H         1 ROF         0.0269
     29 H3         12.8823   35.0093   52.4978 H         1 ROF         0.0269
     30 H4         13.8440   35.5944   51.0980 H         1 ROF         0.0269
     31 H5         14.2651   33.4268   50.3100 H         1 ROF         0.0326
     32 H6         14.2818   26.2208   52.9561 H         1 ROF         0.0551
     33 H7         13.8974   26.4804   50.5114 H         1 ROF         0.0524
     34 H8         13.8178   28.3325   47.2794 H         1 ROF         0.1418
     35 H9         13.4711   31.9687   52.6612 H         1 ROF         0.0612
     36 H10        15.0475   32.1530   51.8201 H         1 ROF         0.0612
     37 H11        14.0198   30.4700   53.4309 H         1 ROF         0.0557
     38 H12        14.4069   26.2581   54.9019 H         1 ROF         0.2309
     39 H13        16.7224   25.6894   59.2358 H         1 ROF         0.0777
     40 H14        12.9488   27.4532   59.7940 H         1 ROF         0.0777
@<TRIPOS>BOND
     1    5    1 2  
     2    3    2 1  
     3    4    2 1  
     4    4    3 1  
     5   16    4 1  
     6    6    5 1  
     7    5   18 am 
     8    6    7 ar 
     9   17    6 ar 
    10    8    7 ar 
    11    9    8 ar 
    12    9   10 1  
    13   14    9 ar 
    14   10   11 1  
    15   11   12 1  
    16   11   13 1  
    17   15   14 1  
    18   14   17 ar 
    19   15   16 1  
    20   18   19 1  
    21   19   20 ar 
    22   19   25 ar 
    23   20   21 1  
    24   20   22 ar 
    25   22   23 ar 
    26   23   24 ar 
    27   24   25 ar 
    28   25   26 1  
    29    2   27 1  
    30    2   28 1  
    31    3   29 1  
    32    3   30 1  
    33    4   31 1  
    34    7   32 1  
    35    8   33 1  
    36   11   34 1  
    37   16   35 1  
    38   16   36 1  
    39   17   37 1  
    40   18   38 1  
    41   22   39 1  
    42   24   40 1  
@<TRIPOS>SUBSTRUCTURE
     1 ROF         1

