### 
### Created by X-TOOL on Mon Sep 10 21:12:51 2018
### 

@<TRIPOS>MOLECULE
1xor_ligand
   29    30     1     0     0
SMALL
GAST_HUCK


@<TRIPOS>ATOM
      1 O1          8.9550    2.0750   53.5620 O.2       1 ZAR        -0.4115
      2 C2          8.4970    1.1650   54.2480 C.2       1 ZAR         0.2248
      3 N3          7.1500    0.9280   54.2980 N.am      1 ZAR        -0.1542
      4 N4          6.5470   -0.0400   55.0070 N.2       1 ZAR        -0.1523
      5 C5          7.2800   -0.7640   55.7880 C.2       1 ZAR         0.0784
      6 C6          8.7570   -0.7050   55.7980 C.2       1 ZAR        -0.0301
      7 C7          9.3290    0.2750   55.0890 C.2       1 ZAR         0.0123
      8 C8          6.5140   -1.8080   56.5080 C.ar      1 ZAR        -0.0241
      9 C9          6.7860   -1.9950   57.8750 C.ar      1 ZAR        -0.0347
     10 C10         6.0580   -2.9440   58.6230 C.ar      1 ZAR         0.1191
     11 C11         5.0450   -3.6950   57.9990 C.ar      1 ZAR         0.1260
     12 C12         4.7590   -3.4740   56.6370 C.ar      1 ZAR        -0.0409
     13 C13         5.4850   -2.5300   55.8990 C.ar      1 ZAR        -0.0741
     14 C14         3.7670   -5.8100   58.5700 C.3       1 ZAR         0.3645
     15 O15         4.4090   -4.5710   58.8760 O.3       1 ZAR        -0.2606
     16 F16         3.6540   -6.0670   57.2470 F         1 ZAR        -0.1741
     17 F17         2.5020   -5.7300   59.0710 F         1 ZAR        -0.1741
     18 O18         6.2600   -3.2270   59.9760 O.3       1 ZAR        -0.3252
     19 C19         6.8840   -2.2270   60.7960 C.3       1 ZAR         0.0568
     20 H1          6.5618    1.5299   53.7579 H         1 ZAR         0.2767
     21 H2          9.3521   -1.4259   56.3566 H         1 ZAR         0.0728
     22 H3         10.4078    0.4181   55.1306 H         1 ZAR         0.0610
     23 H4          7.5590   -1.4069   58.3564 H         1 ZAR         0.0495
     24 H5          3.9696   -4.0399   56.1556 H         1 ZAR         0.0512
     25 H6          5.2481   -2.3599   54.8550 H         1 ZAR         0.0492
     26 H7          4.3214   -6.6306   59.0488 H         1 ZAR         0.1416
     27 H8          6.9705   -2.6001   61.8272 H         1 ZAR         0.0573
     28 H9          6.2733   -1.3122   60.7872 H         1 ZAR         0.0573
     29 H10         7.8862   -2.0027   60.4019 H         1 ZAR         0.0573
@<TRIPOS>BOND
     1    1    2 2  
     2    2    3 am 
     3    2    7 1  
     4    3    4 1  
     5    4    5 2  
     6    5    6 1  
     7    5    8 1  
     8    6    7 2  
     9    8    9 ar 
    10    8   13 ar 
    11    9   10 ar 
    12   10   11 ar 
    13   10   18 1  
    14   11   12 ar 
    15   11   15 1  
    16   12   13 ar 
    17   15   14 1  
    18   14   16 1  
    19   14   17 1  
    20   18   19 1  
    21    3   20 1  
    22    6   21 1  
    23    7   22 1  
    24    9   23 1  
    25   12   24 1  
    26   13   25 1  
    27   14   26 1  
    28   19   27 1  
    29   19   28 1  
    30   19   29 1  
@<TRIPOS>SUBSTRUCTURE
     1 ZAR         1

