### 
### Created by X-TOOL on Sun Sep  9 21:50:09 2018
### 

@<TRIPOS>MOLECULE
1xot_ligand
   68    71     1     0     0
SMALL
GAST_HUCK


@<TRIPOS>ATOM
      1 C1         40.1680    3.9210   60.8780 C.3       1 NON        -0.0362
      2 C2         39.1890    3.4360   61.8960 C.3       1 NON         0.0727
      3 O3         39.9370    2.9220   62.9740 O.3       1 NON        -0.3040
      4 C4         39.2930    2.0460   63.8060 C.ar      1 NON         0.1283
      5 C5         37.9070    2.0690   64.0660 C.ar      1 NON        -0.0146
      6 C6         37.3160    1.1330   64.9280 C.ar      1 NON        -0.0310
      7 C7         38.1140    0.1530   65.5400 C.ar      1 NON         0.1115
      8 C8         39.4720    0.1560   65.2840 C.ar      1 NON        -0.0122
      9 C9         40.0420    1.1030   64.4390 C.ar      1 NON         0.1016
     10 S10        37.5210   -0.9690   66.5300 S.o2      1 NON         0.0694
     11 O11        36.5030   -1.6860   65.7930 O.2       1 NON        -0.1510
     12 O12        38.5830   -1.8640   66.9070 O.2       1 NON        -0.1510
     13 C13        35.4290    0.9610   72.2450 C.3       1 NON        -0.0245
     14 N14        36.9890   -0.2210   67.7610 N.am      1 NON        -0.2247
     15 C15        37.9340    0.6440   68.4500 C.3       1 NON         0.0697
     16 C16        37.4370    0.8250   69.8810 C.3       1 NON        -0.0144
     17 N17        36.0310    1.2230   69.8580 N.4       1 NON         0.2373
     18 C18        35.1170    0.3160   69.1820 C.3       1 NON        -0.0144
     19 C19        35.6040    0.2450   67.7350 C.3       1 NON         0.0697
     20 C20        35.5060    1.9050   71.0480 C.3       1 NON        -0.0347
     21 C21        41.4810    0.9330   64.2310 C.2       1 NON         0.2192
     22 N22        42.1820    1.4620   63.0410 N.am      1 NON        -0.1843
     23 C23        43.5220    1.6070   63.1030 C.2       1 NON         0.2479
     24 C24        44.1550    1.4270   64.4410 C.2       1 NON         0.1634
     25 N25        43.5260    1.0870   65.5370 N.2       1 NON        -0.2117
     26 N26        42.1670    0.9170   65.5050 N.2       1 NON        -0.1714
     27 O27        44.2130    1.9020   62.1510 O.2       1 NON        -0.3899
     28 C28        45.4970    1.5370   64.8320 C.2       1 NON         0.1292
     29 N29        45.5340    1.2560   66.1870 N.pl3     1 NON        -0.1884
     30 C30        44.2740    0.9590   66.6170 C.2       1 NON         0.1986
     31 C31        46.7010    1.9070   64.0010 C.3       1 NON         0.0210
     32 C32        43.8200    0.5560   67.9880 C.3       1 NON         0.0585
     33 C33        43.8940    1.7390   68.9190 C.3       1 NON        -0.0297
     34 C34        43.9420    1.2670   70.3500 C.3       1 NON        -0.0613
     35 H1         39.6252    4.3328   60.0144 H         1 NON         0.0256
     36 H2         40.7997    3.0830   60.5484 H         1 NON         0.0256
     37 H3         40.8001    4.7045   61.3213 H         1 NON         0.0256
     38 H4         38.5557    2.6466   61.4651 H         1 NON         0.0622
     39 H5         38.5560    4.2681   62.2380 H         1 NON         0.0622
     40 H6         37.2881    2.8223   63.5920 H         1 NON         0.0579
     41 H7         36.2497    1.1662   65.1204 H         1 NON         0.0710
     42 H8         40.1037   -0.5920   65.7493 H         1 NON         0.0710
     43 H9         35.0327    1.5043   73.1155 H         1 NON         0.0281
     44 H10        36.4346    0.5804   72.4771 H         1 NON         0.0281
     45 H11        34.7642    0.1181   72.0051 H         1 NON         0.0281
     46 H12        37.9860    1.6198   67.9450 H         1 NON         0.0531
     47 H13        38.9315    0.1803   68.4555 H         1 NON         0.0531
     48 H14        38.0312    1.6044   70.3804 H         1 NON         0.0830
     49 H15        37.5414   -0.1231   70.4288 H         1 NON         0.0830
     50 H16        36.0626    1.9874   69.2017 H         1 NON         0.2034
     51 H17        34.0892    0.7058   69.2225 H         1 NON         0.0830
     52 H18        35.1501   -0.6801   69.6476 H         1 NON         0.0830
     53 H19        34.9814   -0.4588   67.1632 H         1 NON         0.0531
     54 H20        35.5514    1.2412   67.2716 H         1 NON         0.0531
     55 H21        36.1680    2.7469   71.2987 H         1 NON         0.0812
     56 H22        34.4976    2.2847   70.8267 H         1 NON         0.0812
     57 H23        41.6767    1.7055   62.2131 H         1 NON         0.2659
     58 H24        46.3785    1.2691   66.7766 H         1 NON         0.2595
     59 H25        46.3896    2.0773   62.9598 H         1 NON         0.0551
     60 H26        47.4354    1.0888   64.0348 H         1 NON         0.0551
     61 H27        47.1557    2.8247   64.4025 H         1 NON         0.0551
     62 H28        44.4693   -0.2474   68.3662 H         1 NON         0.0663
     63 H29        42.7820    0.1955   67.9376 H         1 NON         0.0663
     64 H30        43.0066    2.3726   68.7741 H         1 NON         0.0311
     65 H31        44.8005    2.3212   68.6969 H         1 NON         0.0311
     66 H32        43.9958    2.1367   71.0213 H         1 NON         0.0233
     67 H33        44.8295    0.6342   70.4978 H         1 NON         0.0233
     68 H34        43.0356    0.6857   70.5750 H         1 NON         0.0233
@<TRIPOS>BOND
     1    2    1 1  
     2    3    2 1  
     3    4    3 1  
     4    5    4 ar 
     5    9    4 ar 
     6    6    5 ar 
     7    7    6 ar 
     8    7    8 ar 
     9   10    7 1  
    10    8    9 ar 
    11    9   21 1  
    12   10   11 2  
    13   10   12 2  
    14   14   10 am 
    15   20   13 1  
    16   15   14 1  
    17   14   19 1  
    18   16   15 1  
    19   17   16 1  
    20   17   18 1  
    21   17   20 1  
    22   18   19 1  
    23   21   22 am 
    24   21   26 2  
    25   22   23 am 
    26   23   24 1  
    27   23   27 2  
    28   24   25 1  
    29   24   28 2  
    30   25   26 1  
    31   25   30 2  
    32   28   29 1  
    33   28   31 1  
    34   29   30 1  
    35   30   32 1  
    36   32   33 1  
    37   33   34 1  
    38    1   35 1  
    39    1   36 1  
    40    1   37 1  
    41    2   38 1  
    42    2   39 1  
    43    5   40 1  
    44    6   41 1  
    45    8   42 1  
    46   13   43 1  
    47   13   44 1  
    48   13   45 1  
    49   15   46 1  
    50   15   47 1  
    51   16   48 1  
    52   16   49 1  
    53   17   50 1  
    54   18   51 1  
    55   18   52 1  
    56   19   53 1  
    57   19   54 1  
    58   20   55 1  
    59   20   56 1  
    60   22   57 1  
    61   29   58 1  
    62   31   59 1  
    63   31   60 1  
    64   31   61 1  
    65   32   62 1  
    66   32   63 1  
    67   33   64 1  
    68   33   65 1  
    69   34   66 1  
    70   34   67 1  
    71   34   68 1  
@<TRIPOS>SUBSTRUCTURE
     1 NON         1

