### 
### Created by X-TOOL on Mon Sep 10 21:12:51 2018
### 

@<TRIPOS>MOLECULE
1xow_ligand
   45    48     1     0     0
SMALL
GAST_HUCK


@<TRIPOS>ATOM
      1 C1         27.2730    5.3280    3.7120 C.3       1 R18         0.0280
      2 C2         26.4510    6.5420    4.1340 C.3       1 R18         0.0431
      3 C3         24.9630    6.4080    3.9610 C.2       1 R18         0.1453
      4 C4         24.4020    5.1070    4.2980 C.2       1 R18         0.0317
      5 C5         25.1310    3.9470    4.3720 C.2       1 R18         0.0323
      6 C6         24.4330    2.6110    4.7480 C.3       1 R18         0.0007
      7 C7         25.1750    1.4490    4.0730 C.3       1 R18        -0.0278
      8 C8         26.6550    1.4300    4.4970 C.3       1 R18        -0.0038
      9 C9         27.3360    2.8010    4.1460 C.2       1 R18         0.0320
     10 C10        26.6220    3.9420    4.0680 C.2       1 R18         0.0433
     11 C11        28.8100    2.7460    3.9390 C.2       1 R18        -0.0301
     12 C12        29.5530    1.6240    4.0180 C.2       1 R18        -0.1332
     13 C13        28.9480    0.2640    4.3110 C.3       1 R18        -0.0815
     14 C14        27.4610    0.2610    3.8450 C.3       1 R18        -0.0842
     15 C15        26.9340   -1.1800    4.1400 C.3       1 R18        -0.0641
     16 C16        28.2410   -1.9740    3.8510 C.3       1 R18        -0.0430
     17 C17        29.4280   -0.9660    3.5200 C.3       1 R18         0.0069
     18 C18        29.0060    0.0310    5.8840 C.3       1 R18        -0.1225
     19 C27        29.4750   -0.7980    2.0210 C.3       1 R18        -0.0538
     20 O83        24.2470    7.3520    3.6270 O.2       1 R18        -0.3705
     21 O97        30.6330   -1.5560    4.0600 O.3       1 R18        -0.4088
     22 H1         28.2516    5.3858    4.2110 H         1 R18         0.0591
     23 H2         27.4141    5.3710    2.6219 H         1 R18         0.0591
     24 H3         26.7856    7.4024    3.5359 H         1 R18         0.0523
     25 H4         26.6525    6.7345    5.1981 H         1 R18         0.0523
     26 H5         23.3343    5.0512    4.5047 H         1 R18         0.0908
     27 H6         23.3887    2.6311    4.4029 H         1 R18         0.0464
     28 H7         24.4559    2.4780    5.8397 H         1 R18         0.0464
     29 H8         25.1136    1.5668    2.9811 H         1 R18         0.0316
     30 H9         24.7030    0.4998    4.3665 H         1 R18         0.0316
     31 H10        26.6891    1.2949    5.5881 H         1 R18         0.0468
     32 H11        29.3237    3.6779    3.7075 H         1 R18         0.1039
     33 H12        30.6288    1.6966    3.8656 H         1 R18         0.0414
     34 H13        27.4280    0.4188    2.7569 H         1 R18         0.0107
     35 H14        26.1168   -1.4682    3.4624 H         1 R18         0.0253
     36 H15        26.6031   -1.2939    5.1828 H         1 R18         0.0253
     37 H16        28.0795   -2.6413    2.9916 H         1 R18         0.0274
     38 H17        28.5069   -2.5722    4.7350 H         1 R18         0.0274
     39 H18        28.6542    0.9355    6.4018 H         1 R18         0.0009
     40 H19        30.0419   -0.1842    6.1849 H         1 R18         0.0009
     41 H20        28.3619   -0.8192    6.1528 H         1 R18         0.0009
     42 H21        30.2869   -0.1051    1.7550 H         1 R18         0.0239
     43 H22        28.5159   -0.3919    1.6673 H         1 R18         0.0239
     44 H23        29.6566   -1.7744    1.5481 H         1 R18         0.0239
     45 H24        31.3708   -0.9840    3.8839 H         1 R18         0.2077
@<TRIPOS>BOND
     1    1    2 1  
     2    1   10 1  
     3    2    3 1  
     4    3    4 1  
     5    3   20 2  
     6    4    5 2  
     7    5    6 1  
     8    5   10 1  
     9    6    7 1  
    10    7    8 1  
    11    8    9 1  
    12    8   14 1  
    13    9   10 2  
    14    9   11 1  
    15   11   12 2  
    16   12   13 1  
    17   13   14 1  
    18   13   17 1  
    19   13   18 1  
    20   14   15 1  
    21   15   16 1  
    22   16   17 1  
    23   17   19 1  
    24   17   21 1  
    25    1   22 1  
    26    1   23 1  
    27    2   24 1  
    28    2   25 1  
    29    4   26 1  
    30    6   27 1  
    31    6   28 1  
    32    7   29 1  
    33    7   30 1  
    34    8   31 1  
    35   11   32 1  
    36   12   33 1  
    37   14   34 1  
    38   15   35 1  
    39   15   36 1  
    40   16   37 1  
    41   16   38 1  
    42   18   39 1  
    43   18   40 1  
    44   18   41 1  
    45   19   42 1  
    46   19   43 1  
    47   19   44 1  
    48   21   45 1  
@<TRIPOS>SUBSTRUCTURE
     1 R18         1

