### 
### Created by X-TOOL on Mon Sep 10 21:12:51 2018
### 

@<TRIPOS>MOLECULE
1xoz_ligand
   48    53     1     0     0
SMALL
GAST_HUCK


@<TRIPOS>ATOM
      1 C3         42.8220   37.8770   10.1470 C.ar      1 CIA        -0.0802
      2 C2         42.9660   38.2730   11.5040 C.ar      1 CIA        -0.0829
      3 C1         43.8200   37.6730   12.4150 C.ar      1 CIA        -0.0797
      4 C6         44.5670   36.6040   11.8900 C.ar      1 CIA        -0.0311
      5 C7         45.5670   35.7220   12.5090 C.2       1 CIA        -0.0396
      6 C8         45.9500   34.8780   11.5180 C.2       1 CIA         0.0736
      7 N9         45.3070   35.1450   10.3960 N.pl3     1 CIA        -0.2785
      8 C5         44.4430   36.1950   10.5540 C.ar      1 CIA         0.0561
      9 C4         43.5880   36.7990    9.6480 C.ar      1 CIA        -0.0482
     10 C13        46.9640   33.8340   11.7720 C.3       1 CIA         0.1253
     11 N12        47.2580   33.5750   13.1710 N.am      1 CIA        -0.2237
     12 C17        48.1380   32.5760   13.3970 C.2       1 CIA         0.2073
     13 O20        48.6650   31.9330   12.5250 O.2       1 CIA        -0.3942
     14 C16        48.4930   32.2400   14.7760 C.3       1 CIA         0.1231
     15 N15        48.1260   33.1800   15.8350 N.am      1 CIA        -0.2555
     16 C31        47.2490   34.1540   15.6280 C.2       1 CIA         0.2075
     17 O32        46.8900   34.9790   16.4840 O.2       1 CIA        -0.3941
     18 C11        46.6300   34.3090   14.2750 C.3       1 CIA         0.1404
     19 C10        46.0970   35.7020   13.9150 C.3       1 CIA        -0.0005
     20 C18        48.7160   33.0530   17.1550 C.3       1 CIA         0.0252
     21 C22        48.2060   34.2980   10.9340 C.ar      1 CIA        -0.0245
     22 C27        48.7360   33.4820    9.8960 C.ar      1 CIA        -0.0759
     23 C26        49.8220   33.8410    9.1280 C.ar      1 CIA        -0.0473
     24 C25        50.4030   35.0570    9.4070 C.ar      1 CIA         0.1163
     25 O30        51.4800   35.6170    8.7840 O.3       1 CIA        -0.2954
     26 C29        51.8080   36.6900    9.6600 C.3       1 CIA         0.1854
     27 O28        50.6580   37.0270   10.4910 O.3       1 CIA        -0.2927
     28 C24        49.9300   35.8680   10.3900 C.ar      1 CIA         0.1174
     29 C23        48.8280   35.5130   11.1710 C.ar      1 CIA        -0.0355
     30 H1         42.1283   38.3989    9.4978 H         1 CIA         0.0503
     31 H2         42.3640   39.1048   11.8516 H         1 CIA         0.0500
     32 H3         43.9050   38.0000   13.4450 H         1 CIA         0.0510
     33 H4         45.4387   34.6290    9.5143 H         1 CIA         0.2216
     34 H5         43.5108   36.4657    8.6194 H         1 CIA         0.0531
     35 H6         46.5943   32.8863   11.3535 H         1 CIA         0.0879
     36 H7         49.5859   32.1203   14.8111 H         1 CIA         0.0765
     37 H8         48.0112   31.2796   15.0116 H         1 CIA         0.0765
     38 H9         45.6942   33.7456   14.4051 H         1 CIA         0.0817
     39 H10        45.2872   35.9692   14.6098 H         1 CIA         0.0369
     40 H11        46.9128   36.4345   14.0036 H         1 CIA         0.0369
     41 H12        48.3210   33.8430   17.8107 H         1 CIA         0.0488
     42 H13        49.8089   33.1518   17.0792 H         1 CIA         0.0488
     43 H14        48.4652   32.0680   17.5756 H         1 CIA         0.0488
     44 H15        48.2605   32.5280    9.6991 H         1 CIA         0.0441
     45 H16        50.2004   33.1971    8.3423 H         1 CIA         0.0493
     46 H17        52.0978   37.5692    9.0660 H         1 CIA         0.0970
     47 H18        52.6473   36.3900   10.3046 H         1 CIA         0.0970
     48 H19        48.4659   36.1760   11.9484 H         1 CIA         0.0454
@<TRIPOS>BOND
     1    1    2 ar 
     2    1    9 ar 
     3    2    3 ar 
     4    3    4 ar 
     5    4    5 1  
     6    4    8 ar 
     7    5    6 2  
     8    5   19 1  
     9    6    7 1  
    10    6   10 1  
    11    7    8 1  
    12    8    9 ar 
    13   10   11 1  
    14   10   21 1  
    15   11   12 am 
    16   11   18 1  
    17   12   13 2  
    18   12   14 1  
    19   14   15 1  
    20   15   16 am 
    21   15   20 1  
    22   16   17 2  
    23   16   18 1  
    24   18   19 1  
    25   21   22 ar 
    26   21   29 ar 
    27   22   23 ar 
    28   23   24 ar 
    29   24   25 1  
    30   24   28 ar 
    31   25   26 1  
    32   26   27 1  
    33   27   28 1  
    34   28   29 ar 
    35    1   30 1  
    36    2   31 1  
    37    3   32 1  
    38    7   33 1  
    39    9   34 1  
    40   10   35 1  
    41   14   36 1  
    42   14   37 1  
    43   18   38 1  
    44   19   39 1  
    45   19   40 1  
    46   20   41 1  
    47   20   42 1  
    48   20   43 1  
    49   22   44 1  
    50   23   45 1  
    51   26   46 1  
    52   26   47 1  
    53   29   48 1  
@<TRIPOS>SUBSTRUCTURE
     1 CIA         1

