### 
### Created by X-TOOL on Mon Sep 10 21:12:51 2018
### 

@<TRIPOS>MOLECULE
1xp0_ligand
   68    71     1     0     0
SMALL
GAST_HUCK


@<TRIPOS>ATOM
      1 C1        -17.3110   28.7690   59.4250 C.3       1 VDN        -0.0362
      2 C2        -18.4240   27.7500   59.5520 C.3       1 VDN         0.0727
      3 O3        -19.4990   28.3170   60.2890 O.3       1 VDN        -0.3040
      4 C4        -20.6790   27.6470   60.5320 C.ar      1 VDN         0.1283
      5 C5        -20.8720   26.3220   60.1320 C.ar      1 VDN        -0.0146
      6 C6        -22.0880   25.7000   60.4070 C.ar      1 VDN        -0.0310
      7 C7        -23.1120   26.3870   61.0750 C.ar      1 VDN         0.1115
      8 C8        -22.9030   27.7070   61.4740 C.ar      1 VDN        -0.0122
      9 C9        -21.7100   28.3360   61.1660 C.ar      1 VDN         0.1016
     10 S10       -24.5130   25.6830   61.4210 S.o2      1 VDN         0.0694
     11 O11       -25.6280   26.5010   61.0510 O.2       1 VDN        -0.1510
     12 O12       -24.5590   24.4480   60.7000 O.2       1 VDN        -0.1510
     13 C13       -23.9260   24.9690   67.8530 C.3       1 VDN        -0.0245
     14 N14       -24.6520   25.3890   62.9190 N.am      1 VDN        -0.2247
     15 C15       -23.5890   24.5300   63.4650 C.3       1 VDN         0.0697
     16 C16       -23.7010   24.3520   64.9680 C.3       1 VDN        -0.0144
     17 N17       -23.9540   25.6730   65.5070 N.4       1 VDN         0.2373
     18 C18       -25.3030   26.1390   65.2360 C.3       1 VDN        -0.0144
     19 C19       -25.4770   26.3040   63.7200 C.3       1 VDN         0.0697
     20 C20       -23.3800   25.9480   66.8200 C.3       1 VDN        -0.0347
     21 C21       -21.3890   29.7160   61.6140 C.2       1 VDN         0.2192
     22 N22       -21.0380   30.7260   60.6430 N.am      1 VDN        -0.1843
     23 C23       -20.9950   32.0290   60.9210 C.2       1 VDN         0.2479
     24 C24       -21.5360   32.3970   62.2430 C.2       1 VDN         0.1634
     25 N25       -21.9910   31.5330   63.1240 N.2       1 VDN        -0.2117
     26 N26       -22.0380   30.1810   62.8070 N.2       1 VDN        -0.1714
     27 O27       -20.5730   32.8270   60.0980 O.2       1 VDN        -0.3899
     28 C28       -21.7100   33.6360   62.8500 C.2       1 VDN         0.1292
     29 N29       -22.2670   33.3890   64.0670 N.pl3     1 VDN        -0.1884
     30 C30       -22.4610   32.0570   64.2250 C.2       1 VDN         0.1986
     31 C31       -21.3840   35.0070   62.3250 C.3       1 VDN         0.0210
     32 C32       -23.0180   31.3240   65.4100 C.3       1 VDN         0.0585
     33 C33       -21.8600   30.6260   66.1240 C.3       1 VDN        -0.0297
     34 C34       -22.4100   29.8920   67.3240 C.3       1 VDN        -0.0613
     35 H1        -16.4776   28.3326   58.8549 H         1 VDN         0.0256
     36 H2        -16.9595   29.0549   60.4273 H         1 VDN         0.0256
     37 H3        -17.6873   29.6596   58.9005 H         1 VDN         0.0256
     38 H4        -18.0484   26.8592   60.0768 H         1 VDN         0.0622
     39 H5        -18.7762   27.4639   58.5500 H         1 VDN         0.0622
     40 H6        -20.0855   25.7849   59.6143 H         1 VDN         0.0579
     41 H7        -22.2446   24.6720   60.1007 H         1 VDN         0.0710
     42 H8        -23.6722   28.2378   62.0232 H         1 VDN         0.0710
     43 H9        -23.4843   25.1891   68.8361 H         1 VDN         0.0281
     44 H10       -23.6678   23.9416   67.5569 H         1 VDN         0.0281
     45 H11       -25.0198   25.0699   67.9116 H         1 VDN         0.0281
     46 H12       -22.6144   24.9854   63.2353 H         1 VDN         0.0531
     47 H13       -23.6536   23.5415   62.9869 H         1 VDN         0.0531
     48 H14       -22.7638   23.9455   65.3760 H         1 VDN         0.0830
     49 H15       -24.5319   23.6737   65.2120 H         1 VDN         0.0830
     50 H16       -23.3975   26.2668   64.9122 H         1 VDN         0.2034
     51 H17       -25.4665   27.1062   65.7338 H         1 VDN         0.0830
     52 H18       -26.0300   25.4048   65.6133 H         1 VDN         0.0830
     53 H19       -26.5334   26.1238   63.4718 H         1 VDN         0.0531
     54 H20       -25.2082   27.3363   63.4517 H         1 VDN         0.0531
     55 H21       -22.2861   25.8458   66.7661 H         1 VDN         0.0812
     56 H22       -23.6381   26.9741   67.1209 H         1 VDN         0.0812
     57 H23       -20.8156   30.4324   59.7133 H         1 VDN         0.2659
     58 H24       -22.5058   34.1080   64.7648 H         1 VDN         0.2595
     59 H25       -20.9440   34.9199   61.3206 H         1 VDN         0.0551
     60 H26       -20.6654   35.4964   62.9989 H         1 VDN         0.0551
     61 H27       -22.3041   35.6075   62.2714 H         1 VDN         0.0551
     62 H28       -23.7534   30.5778   65.0749 H         1 VDN         0.0663
     63 H29       -23.5032   32.0356   66.0942 H         1 VDN         0.0663
     64 H30       -21.1220   31.3728   66.4520 H         1 VDN         0.0311
     65 H31       -21.3792   29.9111   65.4401 H         1 VDN         0.0311
     66 H32       -21.5891   29.3831   67.8505 H         1 VDN         0.0233
     67 H33       -23.1493   29.1483   66.9918 H         1 VDN         0.0233
     68 H34       -22.8921   30.6100   68.0037 H         1 VDN         0.0233
@<TRIPOS>BOND
     1    2    1 1  
     2    3    2 1  
     3    4    3 1  
     4    5    4 ar 
     5    9    4 ar 
     6    6    5 ar 
     7    7    6 ar 
     8    7    8 ar 
     9   10    7 1  
    10    8    9 ar 
    11    9   21 1  
    12   10   11 2  
    13   10   12 2  
    14   14   10 am 
    15   20   13 1  
    16   15   14 1  
    17   14   19 1  
    18   16   15 1  
    19   17   16 1  
    20   17   18 1  
    21   17   20 1  
    22   18   19 1  
    23   21   22 am 
    24   21   26 2  
    25   22   23 am 
    26   23   24 1  
    27   23   27 2  
    28   24   25 1  
    29   24   28 2  
    30   25   26 1  
    31   25   30 2  
    32   28   29 1  
    33   28   31 1  
    34   29   30 1  
    35   30   32 1  
    36   32   33 1  
    37   33   34 1  
    38    1   35 1  
    39    1   36 1  
    40    1   37 1  
    41    2   38 1  
    42    2   39 1  
    43    5   40 1  
    44    6   41 1  
    45    8   42 1  
    46   13   43 1  
    47   13   44 1  
    48   13   45 1  
    49   15   46 1  
    50   15   47 1  
    51   16   48 1  
    52   16   49 1  
    53   17   50 1  
    54   18   51 1  
    55   18   52 1  
    56   19   53 1  
    57   19   54 1  
    58   20   55 1  
    59   20   56 1  
    60   22   57 1  
    61   29   58 1  
    62   31   59 1  
    63   31   60 1  
    64   31   61 1  
    65   32   62 1  
    66   32   63 1  
    67   33   64 1  
    68   33   65 1  
    69   34   66 1  
    70   34   67 1  
    71   34   68 1  
@<TRIPOS>SUBSTRUCTURE
     1 VDN         1

