### 
### Created by X-TOOL on Mon Sep 10 21:12:51 2018
### 

@<TRIPOS>MOLECULE
1xp1_ligand
   66    70     1     0     0
SMALL
GAST_HUCK


@<TRIPOS>ATOM
      1 C1         31.0200   -0.1590   28.8830 C.3       1 AIH         0.0833
      2 C2         31.2290   -1.6020   28.3540 C.3       1 AIH         0.1278
      3 O3         29.9990   -2.3260   28.6030 O.3       1 AIH        -0.3110
      4 C4         28.7870   -1.9020   28.1250 C.ar      1 AIH         0.0950
      5 C5         27.8770   -2.9010   27.8170 C.ar      1 AIH        -0.0469
      6 C6         26.6200   -2.5960   27.2970 C.ar      1 AIH        -0.0488
      7 C7         26.2510   -1.2290   27.1610 C.ar      1 AIH         0.0705
      8 O8         25.0100   -0.9830   26.6580 O.3       1 AIH        -0.3420
      9 C9         27.1760   -0.2260   27.4850 C.ar      1 AIH        -0.0295
     10 C10        28.4710   -0.5330   27.9000 C.ar      1 AIH         0.0387
     11 S11        29.4850    0.5350   28.2710 S.3       1 AIH        -0.0894
     12 C12        32.3210    0.5570   28.5810 C.ar      1 AIH        -0.0343
     13 C13        32.5280    1.3640   27.4550 C.ar      1 AIH        -0.0673
     14 C14        33.7900    1.9610   27.3250 C.ar      1 AIH        -0.0398
     15 C15        34.8180    1.7460   28.2770 C.ar      1 AIH         0.0805
     16 O16        36.0360    2.3080   28.1080 O.3       1 AIH        -0.3376
     17 C17        34.6020    0.9470   29.4060 C.ar      1 AIH        -0.0398
     18 C18        33.3320    0.3420   29.5310 C.ar      1 AIH        -0.0673
     19 C19        31.6000   -1.7960   26.8740 C.ar      1 AIH        -0.0182
     20 C20        32.5980   -2.7670   26.6020 C.ar      1 AIH        -0.0658
     21 C21        33.0380   -3.0360   25.3010 C.ar      1 AIH        -0.0395
     22 C22        32.4280   -2.3410   24.2250 C.ar      1 AIH         0.0843
     23 C23        31.4720   -1.3810   24.4850 C.ar      1 AIH        -0.0395
     24 C24        31.0490   -1.0880   25.8190 C.ar      1 AIH        -0.0658
     25 O25        32.8320   -2.5750   22.9510 O.3       1 AIH        -0.3172
     26 C26        33.6620   -3.7020   22.6190 C.3       1 AIH         0.1086
     27 C27        33.8330   -3.8100   21.0910 C.3       1 AIH        -0.0037
     28 N28        32.6000   -4.0420   20.3000 N.4       1 AIH         0.2375
     29 C29        33.0510   -4.0280   18.8880 C.3       1 AIH        -0.0287
     30 C30        31.7120   -3.8610   18.1380 C.3       1 AIH         0.0038
     31 C31        31.8860   -3.5740   16.6460 C.3       1 AIH        -0.0572
     32 C32        31.1200   -2.6760   18.9190 C.3       1 AIH         0.0038
     33 C33        29.5960   -2.6780   18.7890 C.3       1 AIH        -0.0572
     34 C34        31.6110   -2.9360   20.3690 C.3       1 AIH        -0.0287
     35 H1         30.9186   -0.1960   29.9777 H         1 AIH         0.0625
     36 H2         32.0395   -2.0494   28.9480 H         1 AIH         0.0819
     37 H3         28.1474   -3.9375   27.9833 H         1 AIH         0.0496
     38 H4         25.9374   -3.3848   27.0022 H         1 AIH         0.0458
     39 H5         24.9418   -1.3591   25.7883 H         1 AIH         0.2443
     40 H6         26.8768    0.8133   27.4110 H         1 AIH         0.0461
     41 H7         31.7484    1.5198   26.7181 H         1 AIH         0.0530
     42 H8         33.9846    2.6038   26.4741 H         1 AIH         0.0525
     43 H9         36.5998    2.0629   28.8322 H         1 AIH         0.2458
     44 H10        35.3752    0.7992   30.1512 H         1 AIH         0.0525
     45 H11        33.1334   -0.3028   30.3795 H         1 AIH         0.0530
     46 H12        33.0334   -3.3179   27.4279 H         1 AIH         0.0531
     47 H13        33.8260   -3.7580   25.1197 H         1 AIH         0.0525
     48 H14        31.0310   -0.8359   23.6583 H         1 AIH         0.0525
     49 H15        30.3057   -0.3206   26.0024 H         1 AIH         0.0531
     50 H16        33.1926   -4.6221   22.9973 H         1 AIH         0.0665
     51 H17        34.6497   -3.5753   23.0864 H         1 AIH         0.0665
     52 H18        34.5204   -4.6449   20.8902 H         1 AIH         0.0841
     53 H19        34.2840   -2.8707   20.7383 H         1 AIH         0.0841
     54 H20        32.1729   -4.9166   20.5620 H         1 AIH         0.2034
     55 H21        33.5489   -4.9704   18.6160 H         1 AIH         0.0817
     56 H22        33.7294   -3.1848   18.6913 H         1 AIH         0.0817
     57 H23        31.0847   -4.7579   18.2476 H         1 AIH         0.0354
     58 H24        30.8975   -3.4669   16.1755 H         1 AIH         0.0234
     59 H25        32.4287   -4.4059   16.1734 H         1 AIH         0.0234
     60 H26        32.4568   -2.6428   16.5158 H         1 AIH         0.0234
     61 H27        31.5123   -1.7184   18.5460 H         1 AIH         0.0354
     62 H28        29.1791   -1.8284   19.3496 H         1 AIH         0.0234
     63 H29        29.1945   -3.6179   19.1956 H         1 AIH         0.0234
     64 H30        29.3183   -2.5891   17.7284 H         1 AIH         0.0234
     65 H31        32.0846   -2.0303   20.7757 H         1 AIH         0.0817
     66 H32        30.7641   -3.2256   21.0085 H         1 AIH         0.0817
@<TRIPOS>BOND
     1    1    2 1  
     2    1   11 1  
     3    1   12 1  
     4    2    3 1  
     5    2   19 1  
     6    3    4 1  
     7    4    5 ar 
     8    4   10 ar 
     9    5    6 ar 
    10    6    7 ar 
    11    7    8 1  
    12    7    9 ar 
    13    9   10 ar 
    14   10   11 1  
    15   12   13 ar 
    16   12   18 ar 
    17   13   14 ar 
    18   14   15 ar 
    19   15   16 1  
    20   15   17 ar 
    21   17   18 ar 
    22   19   20 ar 
    23   19   24 ar 
    24   20   21 ar 
    25   21   22 ar 
    26   22   23 ar 
    27   22   25 1  
    28   23   24 ar 
    29   25   26 1  
    30   26   27 1  
    31   27   28 1  
    32   28   29 1  
    33   28   34 1  
    34   29   30 1  
    35   30   31 1  
    36   30   32 1  
    37   32   33 1  
    38   32   34 1  
    39    1   35 1  
    40    2   36 1  
    41    5   37 1  
    42    6   38 1  
    43    8   39 1  
    44    9   40 1  
    45   13   41 1  
    46   14   42 1  
    47   16   43 1  
    48   17   44 1  
    49   18   45 1  
    50   20   46 1  
    51   21   47 1  
    52   23   48 1  
    53   24   49 1  
    54   26   50 1  
    55   26   51 1  
    56   27   52 1  
    57   27   53 1  
    58   28   54 1  
    59   29   55 1  
    60   29   56 1  
    61   30   57 1  
    62   31   58 1  
    63   31   59 1  
    64   31   60 1  
    65   32   61 1  
    66   33   62 1  
    67   33   63 1  
    68   33   64 1  
    69   34   65 1  
    70   34   66 1  
@<TRIPOS>SUBSTRUCTURE
     1 AIH         1

