### 
### Created by X-TOOL on Mon Sep 10 21:12:51 2018
### 

@<TRIPOS>MOLECULE
1xp6_ligand
   66    70     1     0     0
SMALL
GAST_HUCK


@<TRIPOS>ATOM
      1 C1         31.0270   -0.1900   28.7830 C.3       1 AIU         0.0833
      2 C2         31.2250   -1.6340   28.2420 C.3       1 AIU         0.1278
      3 O3         30.0210   -2.3830   28.5070 O.3       1 AIU        -0.3110
      4 C4         28.8010   -1.9190   28.0510 C.ar      1 AIU         0.0950
      5 C5         27.8900   -2.9280   27.7530 C.ar      1 AIU        -0.0469
      6 C6         26.6110   -2.6360   27.2660 C.ar      1 AIU        -0.0488
      7 C7         26.2660   -1.2640   27.1360 C.ar      1 AIU         0.0705
      8 O8         25.0400   -0.9700   26.6450 O.3       1 AIU        -0.3420
      9 C9         27.1900   -0.2550   27.4600 C.ar      1 AIU        -0.0295
     10 C10        28.4850   -0.5530   27.8910 C.ar      1 AIU         0.0387
     11 S11        29.5020    0.5530   28.1750 S.3       1 AIU        -0.0894
     12 C12        32.3330    0.5290   28.4880 C.ar      1 AIU        -0.0343
     13 C13        32.5040    1.3730   27.3770 C.ar      1 AIU        -0.0673
     14 C14        33.7600    1.9730   27.2170 C.ar      1 AIU        -0.0398
     15 C15        34.7850    1.7270   28.1480 C.ar      1 AIU         0.0805
     16 O16        36.0150    2.2430   27.9460 O.3       1 AIU        -0.3376
     17 C17        34.5960    0.9020   29.2720 C.ar      1 AIU        -0.0398
     18 C18        33.3440    0.2940   29.4330 C.ar      1 AIU        -0.0673
     19 C19        31.5760   -1.8410   26.7630 C.ar      1 AIU        -0.0182
     20 C20        32.4990   -2.8610   26.4620 C.ar      1 AIU        -0.0658
     21 C21        32.8860   -3.1410   25.1300 C.ar      1 AIU        -0.0395
     22 C22        32.3380   -2.4080   24.0670 C.ar      1 AIU         0.0843
     23 C23        31.4570   -1.3750   24.3620 C.ar      1 AIU        -0.0395
     24 C24        31.0550   -1.1170   25.6860 C.ar      1 AIU        -0.0658
     25 O25        32.7200   -2.6100   22.7790 O.3       1 AIU        -0.3172
     26 C26        33.3950   -3.8340   22.4390 C.3       1 AIU         0.1086
     27 C27        33.7950   -3.9440   20.9580 C.3       1 AIU        -0.0037
     28 N28        32.6910   -4.0790   19.9940 N.4       1 AIU         0.2375
     29 C29        33.3300   -4.1290   18.6540 C.3       1 AIU        -0.0287
     30 C30        32.2840   -3.5570   17.6700 C.3       1 AIU         0.0038
     31 C31        31.8080   -4.6130   16.6500 C.3       1 AIU        -0.0572
     32 C32        31.0980   -3.1780   18.5790 C.3       1 AIU         0.0038
     33 C33        30.3090   -1.9930   18.0100 C.3       1 AIU        -0.0572
     34 C34        31.7990   -2.9000   19.9220 C.3       1 AIU        -0.0287
     35 H1         30.9233   -0.2400   29.8769 H         1 AIU         0.0625
     36 H2         32.0497   -2.0722   28.8233 H         1 AIU         0.0819
     37 H3         28.1774   -3.9626   27.9014 H         1 AIU         0.0496
     38 H4         25.9140   -3.4223   26.9996 H         1 AIU         0.0458
     39 H5         24.9541   -1.3342   25.7718 H         1 AIU         0.2443
     40 H6         26.8892    0.7828   27.3730 H         1 AIU         0.0461
     41 H7         31.6985    1.5520   26.6740 H         1 AIU         0.0530
     42 H8         33.9422    2.6287   26.3732 H         1 AIU         0.0525
     43 H9         36.5863    1.9858   28.6602 H         1 AIU         0.2458
     44 H10        35.3926    0.7421   29.9896 H         1 AIU         0.0525
     45 H11        33.1573   -0.3537   30.2819 H         1 AIU         0.0530
     46 H12        32.9233   -3.4458   27.2701 H         1 AIU         0.0531
     47 H13        33.6082   -3.9244   24.9305 H         1 AIU         0.0525
     48 H14        31.0726   -0.7570   23.5586 H         1 AIU         0.0525
     49 H15        30.3244   -0.3389   25.8752 H         1 AIU         0.0531
     50 H16        32.7270   -4.6743   22.6790 H         1 AIU         0.0665
     51 H17        34.3077   -3.9053   23.0488 H         1 AIU         0.0665
     52 H18        34.4439   -4.8257   20.8504 H         1 AIU         0.0841
     53 H19        34.3608   -3.0380   20.6952 H         1 AIU         0.0841
     54 H20        32.1580   -4.9112   20.1927 H         1 AIU         0.2034
     55 H21        33.5806   -5.1663   18.3871 H         1 AIU         0.0817
     56 H22        34.2434   -3.5163   18.6416 H         1 AIU         0.0817
     57 H23        32.6836   -2.6796   17.1404 H         1 AIU         0.0354
     58 H24        31.0674   -4.1616   15.9735 H         1 AIU         0.0234
     59 H25        31.3494   -5.4582   17.1842 H         1 AIU         0.0234
     60 H26        32.6679   -4.9718   16.0653 H         1 AIU         0.0234
     61 H27        30.4072   -4.0272   18.6866 H         1 AIU         0.0354
     62 H28        29.4732   -1.7519   18.6833 H         1 AIU         0.0234
     63 H29        29.9156   -2.2571   17.0173 H         1 AIU         0.0234
     64 H30        30.9720   -1.1197   17.9213 H         1 AIU         0.0234
     65 H31        32.3675   -1.9586   19.8987 H         1 AIU         0.0817
     66 H32        31.0848   -2.8765   20.7583 H         1 AIU         0.0817
@<TRIPOS>BOND
     1    1    2 1  
     2    1   11 1  
     3    1   12 1  
     4    2    3 1  
     5    2   19 1  
     6    3    4 1  
     7    4    5 ar 
     8    4   10 ar 
     9    5    6 ar 
    10    6    7 ar 
    11    7    8 1  
    12    7    9 ar 
    13    9   10 ar 
    14   10   11 1  
    15   12   13 ar 
    16   12   18 ar 
    17   13   14 ar 
    18   14   15 ar 
    19   15   16 1  
    20   15   17 ar 
    21   17   18 ar 
    22   19   20 ar 
    23   19   24 ar 
    24   20   21 ar 
    25   21   22 ar 
    26   22   23 ar 
    27   22   25 1  
    28   23   24 ar 
    29   25   26 1  
    30   26   27 1  
    31   27   28 1  
    32   28   29 1  
    33   28   34 1  
    34   29   30 1  
    35   30   31 1  
    36   30   32 1  
    37   32   33 1  
    38   32   34 1  
    39    1   35 1  
    40    2   36 1  
    41    5   37 1  
    42    6   38 1  
    43    8   39 1  
    44    9   40 1  
    45   13   41 1  
    46   14   42 1  
    47   16   43 1  
    48   17   44 1  
    49   18   45 1  
    50   20   46 1  
    51   21   47 1  
    52   23   48 1  
    53   24   49 1  
    54   26   50 1  
    55   26   51 1  
    56   27   52 1  
    57   27   53 1  
    58   28   54 1  
    59   29   55 1  
    60   29   56 1  
    61   30   57 1  
    62   31   58 1  
    63   31   59 1  
    64   31   60 1  
    65   32   61 1  
    66   33   62 1  
    67   33   63 1  
    68   33   64 1  
    69   34   65 1  
    70   34   66 1  
@<TRIPOS>SUBSTRUCTURE
     1 AIU         1

