### 
### Created by X-TOOL on Mon Sep 10 21:12:51 2018
### 

@<TRIPOS>MOLECULE
1xp9_ligand
   63    67     1     0     0
SMALL
GAST_HUCK


@<TRIPOS>ATOM
      1 C1         31.1360   -0.2850   28.6940 C.3       1 AIJ         0.0833
      2 C2         31.2950   -1.7190   28.1530 C.3       1 AIJ         0.1278
      3 O3         30.0630   -2.4370   28.4040 O.3       1 AIJ        -0.3110
      4 C4         28.8690   -1.9850   27.9520 C.ar      1 AIJ         0.0950
      5 C5         27.9440   -2.9910   27.6600 C.ar      1 AIJ        -0.0469
      6 C6         26.6930   -2.6550   27.1630 C.ar      1 AIJ        -0.0488
      7 C7         26.3510   -1.3020   27.0590 C.ar      1 AIJ         0.0705
      8 O8         25.1290   -1.0050   26.5700 O.3       1 AIJ        -0.3420
      9 C9         27.2910   -0.3120   27.3510 C.ar      1 AIJ        -0.0295
     10 C10        28.5930   -0.6260   27.7340 C.ar      1 AIJ         0.0387
     11 S11        29.6230    0.4540   28.0710 S.3       1 AIJ        -0.0894
     12 C12        32.4330    0.4380   28.4150 C.ar      1 AIJ        -0.0343
     13 C13        32.6620    1.2840   27.3150 C.ar      1 AIJ        -0.0673
     14 C14        33.9100    1.8730   27.1470 C.ar      1 AIJ        -0.0398
     15 C15        34.9420    1.6480   28.0870 C.ar      1 AIJ         0.0805
     16 O16        36.1450    2.2380   27.9740 O.3       1 AIJ        -0.3376
     17 C17        34.7100    0.8310   29.2040 C.ar      1 AIJ        -0.0398
     18 C18        33.4530    0.2370   29.3560 C.ar      1 AIJ        -0.0673
     19 C19        31.6520   -1.9240   26.6840 C.ar      1 AIJ        -0.0182
     20 C20        32.4950   -2.9860   26.3360 C.ar      1 AIJ        -0.0658
     21 C21        32.8720   -3.2650   25.0010 C.ar      1 AIJ        -0.0395
     22 C22        32.4110   -2.4520   23.9480 C.ar      1 AIJ         0.0843
     23 C23        31.5630   -1.3830   24.3090 C.ar      1 AIJ        -0.0395
     24 C24        31.1840   -1.1260   25.6300 C.ar      1 AIJ        -0.0658
     25 O25        32.7620   -2.6460   22.6350 O.3       1 AIJ        -0.3169
     26 C26        33.3630   -3.9180   22.2850 C.3       1 AIJ         0.1112
     27 C27        33.8170   -4.1220   20.7900 C.3       1 AIJ         0.0044
     28 C28        34.6270   -2.8600   20.5950 C.3       1 AIJ        -0.0191
     29 N29        32.7160   -4.2020   19.7730 N.4       1 AIJ         0.2391
     30 C30        33.0520   -3.9170   18.3300 C.3       1 AIJ        -0.0314
     31 C31        31.7550   -3.3470   17.6770 C.3       1 AIJ        -0.0077
     32 C32        30.7560   -3.3120   18.8490 C.3       1 AIJ        -0.0077
     33 C33        31.6690   -3.2350   20.0840 C.3       1 AIJ        -0.0314
     34 H1         31.0268   -0.3366   29.7873 H         1 AIJ         0.0625
     35 H2         32.1013   -2.1843   28.7390 H         1 AIJ         0.0819
     36 H3         28.2032   -4.0311   27.8214 H         1 AIJ         0.0496
     37 H4         25.9936   -3.4261   26.8609 H         1 AIJ         0.0458
     38 H5         25.0479   -1.3538   25.6902 H         1 AIJ         0.2443
     39 H6         26.9997    0.7296   27.2777 H         1 AIJ         0.0461
     40 H7         31.8689    1.4759   26.6014 H         1 AIJ         0.0530
     41 H8         34.0933    2.5095   26.2889 H         1 AIJ         0.0525
     42 H9         36.6995    1.9647   28.6953 H         1 AIJ         0.2458
     43 H10        35.4914    0.6632   29.9363 H         1 AIJ         0.0525
     44 H11        33.2634   -0.3915   30.2186 H         1 AIJ         0.0530
     45 H12        32.8764   -3.6237   27.1252 H         1 AIJ         0.0531
     46 H13        33.5187   -4.1085   24.7880 H         1 AIJ         0.0525
     47 H14        31.1888   -0.7321   23.5271 H         1 AIJ         0.0525
     48 H15        30.5183   -0.2973   25.8427 H         1 AIJ         0.0531
     49 H16        32.6290   -4.7039   22.5164 H         1 AIJ         0.0668
     50 H17        34.2519   -4.0481   22.9198 H         1 AIJ         0.0668
     51 H18        34.4412   -5.0230   20.6974 H         1 AIJ         0.0875
     52 H19        35.0315   -2.8383   19.5723 H         1 AIJ         0.0285
     53 H20        35.4561   -2.8411   21.3177 H         1 AIJ         0.0285
     54 H21        33.9827   -1.9826   20.7531 H         1 AIJ         0.0285
     55 H22        32.3402   -5.1358   19.8255 H         1 AIJ         0.2037
     56 H23        33.3582   -4.8429   17.8212 H         1 AIJ         0.0814
     57 H24        33.8648   -3.1784   18.2679 H         1 AIJ         0.0814
     58 H25        31.3961   -4.0059   16.8726 H         1 AIJ         0.0319
     59 H26        31.9267   -2.3376   17.2750 H         1 AIJ         0.0319
     60 H27        30.1398   -4.2229   18.8698 H         1 AIJ         0.0319
     61 H28        30.1032   -2.4290   18.7851 H         1 AIJ         0.0319
     62 H29        32.0864   -2.2246   20.2057 H         1 AIJ         0.0814
     63 H30        31.1253   -3.5196   20.9969 H         1 AIJ         0.0814
@<TRIPOS>BOND
     1    1    2 1  
     2    1   11 1  
     3    1   12 1  
     4    2    3 1  
     5    2   19 1  
     6    3    4 1  
     7    4    5 ar 
     8    4   10 ar 
     9    5    6 ar 
    10    6    7 ar 
    11    7    8 1  
    12    7    9 ar 
    13    9   10 ar 
    14   10   11 1  
    15   12   13 ar 
    16   12   18 ar 
    17   13   14 ar 
    18   14   15 ar 
    19   15   16 1  
    20   15   17 ar 
    21   17   18 ar 
    22   19   20 ar 
    23   19   24 ar 
    24   20   21 ar 
    25   21   22 ar 
    26   22   23 ar 
    27   22   25 1  
    28   23   24 ar 
    29   25   26 1  
    30   26   27 1  
    31   27   28 1  
    32   27   29 1  
    33   29   30 1  
    34   29   33 1  
    35   30   31 1  
    36   31   32 1  
    37   32   33 1  
    38    1   34 1  
    39    2   35 1  
    40    5   36 1  
    41    6   37 1  
    42    8   38 1  
    43    9   39 1  
    44   13   40 1  
    45   14   41 1  
    46   16   42 1  
    47   17   43 1  
    48   18   44 1  
    49   20   45 1  
    50   21   46 1  
    51   23   47 1  
    52   24   48 1  
    53   26   49 1  
    54   26   50 1  
    55   27   51 1  
    56   28   52 1  
    57   28   53 1  
    58   28   54 1  
    59   29   55 1  
    60   30   56 1  
    61   30   57 1  
    62   31   58 1  
    63   31   59 1  
    64   32   60 1  
    65   32   61 1  
    66   33   62 1  
    67   33   63 1  
@<TRIPOS>SUBSTRUCTURE
     1 AIJ         1

