### 
### Created by X-TOOL on Mon Sep 10 21:12:51 2018
### 

@<TRIPOS>MOLECULE
1xpc_ligand
   63    67     1     0     0
SMALL
GAST_HUCK


@<TRIPOS>ATOM
      1 C1         31.2360   -0.3230   28.9130 C.3       1 AIT         0.0833
      2 C2         31.3560   -1.7210   28.2890 C.3       1 AIT         0.1278
      3 O3         30.1370   -2.4730   28.5440 O.3       1 AIT        -0.3110
      4 C4         28.9570   -1.9550   28.1010 C.ar      1 AIT         0.0950
      5 C5         28.0570   -2.9720   27.7510 C.ar      1 AIT        -0.0469
      6 C6         26.8160   -2.6120   27.2910 C.ar      1 AIT        -0.0488
      7 C7         26.4850   -1.2490   27.1580 C.ar      1 AIT         0.0705
      8 O8         25.2240   -1.0180   26.7530 O.3       1 AIT        -0.3420
      9 C9         27.3860   -0.2500   27.5540 C.ar      1 AIT        -0.0295
     10 C10        28.6760   -0.5870   27.9840 C.ar      1 AIT         0.0387
     11 S11        29.7200    0.4830   28.3560 S.3       1 AIT        -0.0894
     12 C12        32.5450    0.3830   28.6300 C.ar      1 AIT        -0.0343
     13 C13        32.7400    1.2430   27.5380 C.ar      1 AIT        -0.0673
     14 C14        33.9970    1.8250   27.3600 C.ar      1 AIT        -0.0398
     15 C15        35.0610    1.5840   28.2530 C.ar      1 AIT         0.0805
     16 O16        36.2770    2.1500   28.0980 O.3       1 AIT        -0.3376
     17 C17        34.8610    0.7370   29.3560 C.ar      1 AIT        -0.0398
     18 C18        33.5910    0.1750   29.5280 C.ar      1 AIT        -0.0673
     19 C19        31.7050   -1.8730   26.8200 C.ar      1 AIT        -0.0182
     20 C20        32.6080   -2.8710   26.4350 C.ar      1 AIT        -0.0658
     21 C21        32.9890   -3.1360   25.1010 C.ar      1 AIT        -0.0395
     22 C22        32.4950   -2.3050   24.0900 C.ar      1 AIT         0.0843
     23 C23        31.5950   -1.2900   24.4580 C.ar      1 AIT        -0.0395
     24 C24        31.1880   -1.0920   25.7670 C.ar      1 AIT        -0.0658
     25 O25        32.7880   -2.4670   22.7870 O.3       1 AIT        -0.3169
     26 C26        33.2980   -3.7290   22.3210 C.3       1 AIT         0.1112
     27 C27        33.6970   -3.6680   20.8220 C.3       1 AIT         0.0044
     28 C28        34.6260   -4.8430   20.6060 C.3       1 AIT        -0.0191
     29 N29        32.5710   -3.8810   19.8960 N.4       1 AIT         0.2391
     30 C30        32.7060   -3.1840   18.5880 C.3       1 AIT        -0.0314
     31 C31        31.2640   -2.9080   18.1050 C.3       1 AIT        -0.0077
     32 C32        30.3740   -3.4510   19.2220 C.3       1 AIT        -0.0077
     33 C33        31.3250   -3.3590   20.4480 C.3       1 AIT        -0.0314
     34 H1         31.1513   -0.4292   30.0046 H         1 AIT         0.0625
     35 H2         32.1725   -2.2134   28.8375 H         1 AIT         0.0819
     36 H3         28.3350   -4.0158   27.8417 H         1 AIT         0.0496
     37 H4         26.0912   -3.3747   27.0303 H         1 AIT         0.0458
     38 H5         25.0868   -1.4202   25.9033 H         1 AIT         0.2443
     39 H6         27.0822    0.7902   27.5272 H         1 AIT         0.0461
     40 H7         31.9313    1.4512   26.8468 H         1 AIT         0.0530
     41 H8         34.1590    2.4802   26.5117 H         1 AIT         0.0525
     42 H9         36.8504    1.8629   28.7989 H         1 AIT         0.2458
     43 H10        35.6650    0.5256   30.0517 H         1 AIT         0.0525
     44 H11        33.4129   -0.4487   30.3965 H         1 AIT         0.0530
     45 H12        33.0454   -3.4833   27.2153 H         1 AIT         0.0531
     46 H13        33.6485   -3.9636   24.8662 H         1 AIT         0.0525
     47 H14        31.2040   -0.6363   23.6868 H         1 AIT         0.0525
     48 H15        30.4577   -0.3214   25.9858 H         1 AIT         0.0531
     49 H16        32.5222   -4.4976   22.4525 H         1 AIT         0.0668
     50 H17        34.1841   -3.9969   22.9152 H         1 AIT         0.0668
     51 H18        34.1910   -2.7103   20.6012 H         1 AIT         0.0875
     52 H19        34.9525   -4.8640   19.5558 H         1 AIT         0.0285
     53 H20        34.0968   -5.7775   20.8442 H         1 AIT         0.0285
     54 H21        35.5039   -4.7416   21.2609 H         1 AIT         0.0285
     55 H22        32.4864   -4.8727   19.7363 H         1 AIT         0.2037
     56 H23        33.2355   -3.8235   17.8664 H         1 AIT         0.0814
     57 H24        33.2552   -2.2391   18.7127 H         1 AIT         0.0814
     58 H25        31.0639   -3.4327   17.1591 H         1 AIT         0.0319
     59 H26        31.1001   -1.8290   17.9676 H         1 AIT         0.0319
     60 H27        30.0712   -4.4901   19.0254 H         1 AIT         0.0319
     61 H28        29.4781   -2.8280   19.3608 H         1 AIT         0.0319
     62 H29        31.4415   -2.3193   20.7879 H         1 AIT         0.0814
     63 H30        30.9650   -3.9793   21.2820 H         1 AIT         0.0814
@<TRIPOS>BOND
     1    1    2 1  
     2    1   11 1  
     3    1   12 1  
     4    2    3 1  
     5    2   19 1  
     6    3    4 1  
     7    4    5 ar 
     8    4   10 ar 
     9    5    6 ar 
    10    6    7 ar 
    11    7    8 1  
    12    7    9 ar 
    13    9   10 ar 
    14   10   11 1  
    15   12   13 ar 
    16   12   18 ar 
    17   13   14 ar 
    18   14   15 ar 
    19   15   16 1  
    20   15   17 ar 
    21   17   18 ar 
    22   19   20 ar 
    23   19   24 ar 
    24   20   21 ar 
    25   21   22 ar 
    26   22   23 ar 
    27   22   25 1  
    28   23   24 ar 
    29   25   26 1  
    30   26   27 1  
    31   27   28 1  
    32   27   29 1  
    33   29   30 1  
    34   29   33 1  
    35   30   31 1  
    36   31   32 1  
    37   32   33 1  
    38    1   34 1  
    39    2   35 1  
    40    5   36 1  
    41    6   37 1  
    42    8   38 1  
    43    9   39 1  
    44   13   40 1  
    45   14   41 1  
    46   16   42 1  
    47   17   43 1  
    48   18   44 1  
    49   20   45 1  
    50   21   46 1  
    51   23   47 1  
    52   24   48 1  
    53   26   49 1  
    54   26   50 1  
    55   27   51 1  
    56   28   52 1  
    57   28   53 1  
    58   28   54 1  
    59   29   55 1  
    60   30   56 1  
    61   30   57 1  
    62   31   58 1  
    63   31   59 1  
    64   32   60 1  
    65   32   61 1  
    66   33   62 1  
    67   33   63 1  
@<TRIPOS>SUBSTRUCTURE
     1 AIT         1

