### 
### Created by X-TOOL on Mon Sep 10 21:12:52 2018
### 

@<TRIPOS>MOLECULE
1xq0_ligand
   40    42     1     0     0
SMALL
GAST_HUCK


@<TRIPOS>ATOM
      1 S1         20.3540   26.1270   19.5000 S.o2      1 4TR         0.1781
      2 O1         20.5040   25.0730   20.4420 O.2       1 4TR        -0.1230
      3 O2         19.0880   26.7640   19.3280 O.2       1 4TR        -0.1230
      4 O3         21.2850   27.3070   20.0960 O.3       1 4TR        -0.1567
      5 N1         20.9650   25.6800   18.1360 N.am      1 4TR        -0.2382
      6 C1         21.1700   28.6100   19.6340 C.ar      1 4TR         0.1278
      7 C2         21.7960   29.0030   18.4320 C.ar      1 4TR        -0.0340
      8 C3         21.6860   30.3250   17.9840 C.ar      1 4TR        -0.0637
      9 C4         20.9390   31.2730   18.7400 C.ar      1 4TR        -0.0260
     10 C5         20.3110   30.8750   19.9380 C.ar      1 4TR        -0.0571
     11 C6         20.4260   29.5420   20.3870 C.ar      1 4TR         0.0367
     12 C7         20.8380   32.7150   18.2630 C.3       1 4TR         0.0912
     13 C8         26.2820   34.4920   21.8290 C.1       1 4TR         0.0864
     14 N2         27.3000   34.6890   22.3230 N.1       1 4TR        -0.3392
     15 C9         25.0090   34.2880   21.1980 C.ar      1 4TR         0.0814
     16 C10        24.8440   33.3180   20.1770 C.ar      1 4TR        -0.0382
     17 C11        23.5940   33.1280   19.5670 C.ar      1 4TR        -0.0290
     18 C12        22.4410   33.9060   19.9580 C.ar      1 4TR         0.0861
     19 C13        22.6360   34.8820   20.9920 C.ar      1 4TR        -0.0290
     20 C14        23.8890   35.0670   21.5970 C.ar      1 4TR        -0.0382
     21 N3         21.1410   33.7100   19.3370 N.pl3     1 4TR        -0.1591
     22 N4         19.1240   36.6090   19.0170 N.2       1 4TR        -0.2532
     23 N5         18.4820   35.9500   20.0610 N.2       1 4TR        -0.2532
     24 C17        19.1260   34.8500   20.2890 C.2       1 4TR         0.1479
     25 N6         20.1880   34.7480   19.4300 N.pl3     1 4TR        -0.1102
     26 C15        20.1320   35.8770   18.6580 C.2       1 4TR         0.1479
     27 BR         19.6020   29.0080   22.0020 Br        1 4TR        -0.0596
     28 H1         20.5281   24.9526   17.6068 H         1 4TR         0.1657
     29 H2         21.7936   26.1208   17.7908 H         1 4TR         0.1657
     30 H3         22.3624   28.2809   17.8551 H         1 4TR         0.0534
     31 H4         22.1693   30.6269   17.0619 H         1 4TR         0.0555
     32 H5         19.7395   31.5934   20.5145 H         1 4TR         0.0557
     33 H6         19.8152   32.8928   17.8994 H         1 4TR         0.0693
     34 H7         21.5510   32.8619   17.4384 H         1 4TR         0.0693
     35 H8         25.6908   32.7177   19.8646 H         1 4TR         0.0685
     36 H9         23.4917   32.3824   18.7868 H         1 4TR         0.0546
     37 H10        21.7974   35.4895   21.3127 H         1 4TR         0.0546
     38 H11        24.0037   35.8115   22.3765 H         1 4TR         0.0685
     39 H12        18.8628   34.1162   21.0494 H         1 4TR         0.1330
     40 H13        20.8309   36.1238   17.8602 H         1 4TR         0.1330
@<TRIPOS>BOND
     1    1    2 2  
     2    1    3 2  
     3    4    1 1  
     4    1    5 am 
     5    6    4 1  
     6    7    6 ar 
     7   11    6 ar 
     8    8    7 ar 
     9    9    8 ar 
    10    9   10 ar 
    11   12    9 1  
    12   10   11 ar 
    13   11   27 1  
    14   21   12 1  
    15   13   14 3  
    16   15   13 1  
    17   16   15 ar 
    18   20   15 ar 
    19   17   16 ar 
    20   18   17 ar 
    21   18   19 ar 
    22   21   18 1  
    23   19   20 ar 
    24   25   21 1  
    25   23   22 1  
    26   22   26 2  
    27   24   23 2  
    28   24   25 1  
    29   25   26 1  
    30    5   28 1  
    31    5   29 1  
    32    7   30 1  
    33    8   31 1  
    34   10   32 1  
    35   12   33 1  
    36   12   34 1  
    37   16   35 1  
    38   17   36 1  
    39   19   37 1  
    40   20   38 1  
    41   24   39 1  
    42   26   40 1  
@<TRIPOS>SUBSTRUCTURE
     1 4TR         1

