### 
### Created by X-TOOL on Mon Sep 10 21:12:53 2018
### 

@<TRIPOS>MOLECULE
1xqc_ligand
   67    72     1     0     0
SMALL
GAST_HUCK


@<TRIPOS>ATOM
      1 O42        18.8540   -0.1960   39.2410 O.3       1 AEJ        -0.3392
      2 C39        17.6290    0.0460   38.5970 C.ar      1 AEJ         0.0742
      3 C37        16.5280    0.5650   39.2780 C.ar      1 AEJ        -0.0465
      4 C35        15.3320    0.8090   38.5640 C.ar      1 AEJ        -0.0713
      5 C34        15.2680    0.5430   37.2000 C.ar      1 AEJ        -0.0179
      6 C33        16.3690    0.0200   36.5750 C.ar      1 AEJ        -0.0436
      7 C40        17.5450   -0.2360   37.2650 C.ar      1 AEJ        -0.0380
      8 C24        14.0460    0.7780   36.3970 C.3       1 AEJ         0.0918
      9 N26        14.0520    0.5680   34.9440 N.pl3     1 AEJ        -0.2865
     10 C44        12.8780    0.7390   34.1870 C.ar      1 AEJ         0.0437
     11 C45        11.6290    0.3610   34.6890 C.ar      1 AEJ        -0.0441
     12 C47        10.4470    0.5970   33.9230 C.ar      1 AEJ        -0.0737
     13 C49        10.5000    1.2140   32.6800 C.ar      1 AEJ        -0.0751
     14 C51        11.7330    1.6120   32.1640 C.ar      1 AEJ        -0.0737
     15 C53        12.8990    1.3850   32.9160 C.ar      1 AEJ        -0.0441
     16 C27        15.0810   -0.2110   34.3390 C.3       1 AEJ         0.0391
     17 C30        16.3700   -0.3080   35.1340 C.3       1 AEJ        -0.0036
     18 C19        13.9360    2.2900   36.5180 C.ar      1 AEJ        -0.0229
     19 C20        14.9480    3.1820   36.1900 C.ar      1 AEJ        -0.0679
     20 C22        14.7820    4.5700   36.3210 C.ar      1 AEJ        -0.0503
     21 C14        13.5790    5.1390   36.7930 C.ar      1 AEJ         0.0339
     22 C15        12.6020    4.2140   37.1090 C.ar      1 AEJ        -0.0503
     23 C17        12.7650    2.8330   36.9690 C.ar      1 AEJ        -0.0679
     24 N7         13.3830    6.4520   36.9550 N.pl3     1 AEJ        -0.3019
     25 C8         12.0810    6.9150   37.4730 C.3       1 AEJ         0.0657
     26 C11        11.8740    8.4370   37.4610 C.3       1 AEJ        -0.0117
     27 N1         13.0200    9.2050   37.9430 N.4       1 AEJ         0.2401
     28 C2         14.2240    8.7620   37.2280 C.3       1 AEJ        -0.0010
     29 C4         14.4790    7.2890   37.4700 C.3       1 AEJ         0.0685
     30 C55        15.3990    9.6160   37.7570 C.3       1 AEJ        -0.0076
     31 C58        15.0860   11.1190   37.6320 C.3       1 AEJ        -0.0431
     32 C61        13.7650   11.5030   38.3340 C.3       1 AEJ        -0.0123
     33 C64        12.7280   10.6250   37.6050 C.3       1 AEJ        -0.0315
     34 H1         19.1885    0.6179   39.5989 H         1 AEJ         0.2458
     35 H2         16.5882    0.7782   40.3391 H         1 AEJ         0.0469
     36 H3         14.4642    1.2037   39.0800 H         1 AEJ         0.0515
     37 H4         18.3969   -0.6600   36.7458 H         1 AEJ         0.0463
     38 H5         13.1977    0.2359   36.8402 H         1 AEJ         0.0813
     39 H6         11.5577   -0.1122   35.6617 H         1 AEJ         0.0515
     40 H7          9.4872    0.2877   34.3206 H         1 AEJ         0.0583
     41 H8          9.5905    1.3848   32.1155 H         1 AEJ         0.0505
     42 H9         11.7917    2.0913   31.1935 H         1 AEJ         0.0583
     43 H10        13.8506    1.7137   32.5141 H         1 AEJ         0.0515
     44 H11        15.3166    0.2363   33.3621 H         1 AEJ         0.0538
     45 H12        14.6944   -1.2303   34.1920 H         1 AEJ         0.0538
     46 H13        16.7230   -1.3459   35.0435 H         1 AEJ         0.0430
     47 H14        17.0924    0.3682   34.6536 H         1 AEJ         0.0430
     48 H15        15.8921    2.7963   35.8227 H         1 AEJ         0.0528
     49 H16        15.6026    5.2250   36.0515 H         1 AEJ         0.0499
     50 H17        11.6546    4.5807   37.4873 H         1 AEJ         0.0499
     51 H18        11.9419    2.1755   37.2245 H         1 AEJ         0.0528
     52 H19        11.9854    6.5672   38.5122 H         1 AEJ         0.0564
     53 H20        11.2897    6.4595   36.8596 H         1 AEJ         0.0564
     54 H21        11.0094    8.6719   38.0991 H         1 AEJ         0.0834
     55 H22        11.6619    8.7474   36.4273 H         1 AEJ         0.0834
     56 H23        13.1415    9.0897   38.9370 H         1 AEJ         0.2038
     57 H24        14.0986    8.9308   36.1483 H         1 AEJ         0.0871
     58 H25        15.4134    7.0020   36.9655 H         1 AEJ         0.0567
     59 H26        14.5791    7.1182   38.5520 H         1 AEJ         0.0567
     60 H27        16.3025    9.3866   37.1731 H         1 AEJ         0.0320
     61 H28        15.5743    9.3715   38.8150 H         1 AEJ         0.0320
     62 H29        15.0076   11.3765   36.5655 H         1 AEJ         0.0269
     63 H30        15.9079   11.6906   38.0878 H         1 AEJ         0.0269
     64 H31        13.5421   12.5722   38.2029 H         1 AEJ         0.0317
     65 H32        13.8021   11.2650   39.4073 H         1 AEJ         0.0317
     66 H33        11.7134   10.8885   37.9384 H         1 AEJ         0.0814
     67 H34        12.8075   10.7755   36.5183 H         1 AEJ         0.0814
@<TRIPOS>BOND
     1    1    2 1  
     2    2    3 ar 
     3    2    7 ar 
     4    3    4 ar 
     5    4    5 ar 
     6    5    6 ar 
     7    5    8 1  
     8    6    7 ar 
     9    6   17 1  
    10    8    9 1  
    11    8   18 1  
    12    9   10 1  
    13    9   16 1  
    14   10   11 ar 
    15   10   15 ar 
    16   11   12 ar 
    17   12   13 ar 
    18   13   14 ar 
    19   14   15 ar 
    20   16   17 1  
    21   18   19 ar 
    22   18   23 ar 
    23   19   20 ar 
    24   20   21 ar 
    25   21   22 ar 
    26   21   24 1  
    27   22   23 ar 
    28   24   25 1  
    29   24   29 1  
    30   25   26 1  
    31   26   27 1  
    32   27   28 1  
    33   27   33 1  
    34   28   29 1  
    35   28   30 1  
    36   30   31 1  
    37   31   32 1  
    38   32   33 1  
    39    1   34 1  
    40    3   35 1  
    41    4   36 1  
    42    7   37 1  
    43    8   38 1  
    44   11   39 1  
    45   12   40 1  
    46   13   41 1  
    47   14   42 1  
    48   15   43 1  
    49   16   44 1  
    50   16   45 1  
    51   17   46 1  
    52   17   47 1  
    53   19   48 1  
    54   20   49 1  
    55   22   50 1  
    56   23   51 1  
    57   25   52 1  
    58   25   53 1  
    59   26   54 1  
    60   26   55 1  
    61   27   56 1  
    62   28   57 1  
    63   29   58 1  
    64   29   59 1  
    65   30   60 1  
    66   30   61 1  
    67   31   62 1  
    68   31   63 1  
    69   32   64 1  
    70   32   65 1  
    71   33   66 1  
    72   33   67 1  
@<TRIPOS>SUBSTRUCTURE
     1 AEJ         1

