### 
### Created by X-TOOL on Mon Sep 10 21:12:52 2018
### 

@<TRIPOS>MOLECULE
1xr9_ligand
  131   133     1     0     0
SMALL
GAST_HUCK


@<TRIPOS>ATOM
      1 N          12.1290   26.1580   36.3560 N.4       1 ILE         0.2381
      2 CA         13.0390   26.9690   37.2140 C.3       1 ILE         0.0676
      3 C          14.4860   26.8160   36.7080 C.2       1 ILE         0.2270
      4 O          14.8210   25.7960   36.1150 O.2       1 ILE        -0.3907
      5 CB         12.8470   26.5720   38.7180 C.3       1 ILE         0.0164
      6 CG1        13.1430   27.7610   39.6420 C.3       1 ILE        -0.0460
      7 CG2        13.6370   25.3030   39.0880 C.3       1 ILE        -0.0551
      8 CD1        12.7080   27.5570   41.0660 C.3       1 ILE        -0.0647
      9 N          15.3100   27.8500   36.8860 N.am      1 LEU        -0.2610
     10 CA         16.6500   27.8820   36.2740 C.3       1 LEU         0.1313
     11 C          17.5070   26.6670   36.6210 C.2       1 LEU         0.2037
     12 O          17.3090   26.0340   37.6630 O.2       1 LEU        -0.3944
     13 CB         17.3950   29.1600   36.6920 C.3       1 LEU        -0.0101
     14 CG         16.9720   30.4830   36.0360 C.3       1 LEU        -0.0425
     15 CD1        17.4550   31.6530   36.9030 C.3       1 LEU        -0.0625
     16 CD2        17.5250   30.6090   34.6040 C.3       1 LEU        -0.0625
     17 N          18.4700   26.3660   35.7500 N.am      1 GLY        -0.2664
     18 CA         19.5140   25.3750   36.0220 C.3       1 GLY         0.1203
     19 C          20.5650   25.9210   36.9670 C.2       1 GLY         0.2032
     20 O          20.4600   27.0460   37.4410 O.2       1 GLY        -0.3945
     21 N          21.6060   25.1340   37.2080 N.am      1 PRO        -0.2501
     22 CA         22.5830   25.4480   38.2380 C.3       1 PRO         0.1340
     23 C          23.7360   26.3280   37.7440 C.2       1 PRO         0.2066
     24 O          24.2910   26.0710   36.6690 O.2       1 PRO        -0.3942
     25 CB         23.1110   24.0670   38.6190 C.3       1 PRO        -0.0104
     26 CG         23.0310   23.2630   37.3110 C.3       1 PRO        -0.0281
     27 CD         21.9200   23.8740   36.5060 C.3       1 PRO         0.0369
     28 N          24.0880   27.3630   38.5100 N.am      1 PRO        -0.2498
     29 CA         25.3750   28.0130   38.3340 C.3       1 PRO         0.1338
     30 C          26.4580   26.9600   38.4510 C.2       1 PRO         0.2039
     31 O          26.3190   26.0200   39.2420 O.2       1 PRO        -0.3944
     32 CB         25.4660   28.9830   39.5290 C.3       1 PRO        -0.0104
     33 CG         24.2910   28.6650   40.4190 C.3       1 PRO        -0.0281
     34 CD         23.2820   28.0080   39.5580 C.3       1 PRO         0.0369
     35 N          27.5320   27.1230   37.6900 N.am      1 GLY        -0.2664
     36 CA         28.6470   26.1870   37.7450 C.3       1 GLY         0.1201
     37 C          29.9460   26.7530   37.2000 C.2       1 GLY         0.2008
     38 O          30.1740   27.9650   37.2220 O.2       1 GLY        -0.3947
     39 N          30.8030   25.8650   36.7080 N.am      1 SER        -0.2618
     40 CA         32.1370   26.2650   36.2760 C.3       1 SER         0.1539
     41 C          32.0910   27.3290   35.1730 C.2       1 SER         0.2062
     42 O          31.3160   27.2330   34.2160 O.2       1 SER        -0.3943
     43 CB         32.9330   25.0460   35.7950 C.3       1 SER         0.0843
     44 OG         34.2690   25.3980   35.4320 O.3       1 SER        -0.3903
     45 N          32.9260   28.3460   35.3370 N.am      1 VAL        -0.2634
     46 CA         33.2730   29.2350   34.2570 C.3       1 VAL         0.1332
     47 C          33.7280   28.3370   33.0880 C.2       1 VAL         0.2037
     48 O          34.1110   27.1710   33.2950 O.2       1 VAL        -0.3944
     49 CB         34.3900   30.2310   34.7370 C.3       1 VAL        -0.0063
     50 CG1        35.7850   29.5960   34.6850 C.3       1 VAL        -0.0584
     51 CG2        34.3450   31.5530   33.9990 C.3       1 VAL        -0.0584
     52 N          33.6850   28.8500   31.8650 N.am      1 TYR        -0.2679
     53 CA         34.2300   28.0960   30.7290 C.3       1 TYR         0.1025
     54 C          35.7570   28.1650   30.7200 C.2       1 TYR         0.0619
     55 O          36.3610   29.0610   31.3290 O.co2     1 TYR        -0.5665
     56 CB         33.6770   28.6160   29.3930 C.3       1 TYR         0.0108
     57 CG         32.2170   28.2940   29.1020 C.ar      1 TYR        -0.0499
     58 CD1        31.1850   28.7770   29.9330 C.ar      1 TYR        -0.0686
     59 CD2        31.8630   27.5290   27.9800 C.ar      1 TYR        -0.0686
     60 CE1        29.8400   28.5000   29.6500 C.ar      1 TYR        -0.0398
     61 CE2        30.5170   27.2370   27.6970 C.ar      1 TYR        -0.0398
     62 CZ         29.5220   27.7350   28.5290 C.ar      1 TYR         0.0805
     63 OH         28.2120   27.4570   28.2670 O.3       1 TYR        -0.3376
     64 OXT        36.4300   27.3390   30.0870 O.co2     1 TYR        -0.5665
     65 H1         12.2573   26.4179   35.3906 H         1 ILE         0.2015
     66 H2         11.1727   26.3282   36.6256 H         1 ILE         0.2015
     67 H3         12.3417   25.1795   36.4716 H         1 ILE         0.2015
     68 H4         12.7606   28.0284   37.1128 H         1 ILE         0.1101
     69 H5         11.7830   26.3263   38.8506 H         1 ILE         0.0378
     70 H6         12.6217   28.6446   39.2452 H         1 ILE         0.0269
     71 H7         14.2280   27.9416   39.6352 H         1 ILE         0.0269
     72 H8         13.3787   24.4936   38.3893 H         1 ILE         0.0236
     73 H9         13.3813   24.9978   40.1134 H         1 ILE         0.0236
     74 H10        14.7153   25.5111   39.0255 H         1 ILE         0.0236
     75 H11        12.9559   28.4512   41.6568 H         1 ILE         0.0230
     76 H12        13.2281   26.6838   41.4868 H         1 ILE         0.0230
     77 H13        11.6217   27.3868   41.0968 H         1 ILE         0.0230
     78 H14        15.0113   28.6214   37.4479 H         1 LEU         0.1884
     79 H15        16.5164   27.8984   35.1823 H         1 LEU         0.0800
     80 H16        18.4605   29.0075   36.4654 H         1 LEU         0.0315
     81 H17        17.2639   29.2758   37.7780 H         1 LEU         0.0315
     82 H18        15.8736   30.5115   35.9846 H         1 LEU         0.0298
     83 H19        17.1544   32.6031   36.4372 H         1 LEU         0.0232
     84 H20        18.5510   31.6176   36.9891 H         1 LEU         0.0232
     85 H21        17.0059   31.5773   37.9043 H         1 LEU         0.0232
     86 H22        17.1690   29.7630   33.9977 H         1 LEU         0.0232
     87 H23        18.6246   30.6018   34.6336 H         1 LEU         0.0232
     88 H24        17.1763   31.5521   34.1579 H         1 LEU         0.0232
     89 H25        18.4803   26.8391   34.8691 H         1 GLY         0.1881
     90 H26        19.9966   25.0948   35.0741 H         1 GLY         0.0763
     91 H27        19.0529   24.4853   36.4758 H         1 GLY         0.0763
     92 H28        22.0967   25.9399   39.0933 H         1 PRO         0.0802
     93 H29        22.4830   23.6097   39.3978 H         1 PRO         0.0313
     94 H30        24.1496   24.1304   38.9758 H         1 PRO         0.0313
     95 H31        22.8090   22.2073   37.5261 H         1 PRO         0.0287
     96 H32        23.9817   23.3334   36.7622 H         1 PRO         0.0287
     97 H33        22.2506   24.0744   35.4762 H         1 PRO         0.0524
     98 H34        21.0430   23.2103   36.4870 H         1 PRO         0.0524
     99 H35        25.4433   28.5421   37.3720 H         1 PRO         0.0802
    100 H36        25.4091   30.0246   39.1799 H         1 PRO         0.0313
    101 H37        26.4093   28.8298   40.0736 H         1 PRO         0.0313
    102 H38        23.8793   29.5892   40.8506 H         1 PRO         0.0287
    103 H39        24.5993   27.9876   41.2290 H         1 PRO         0.0287
    104 H40        22.7070   27.2619   40.1261 H         1 PRO         0.0524
    105 H41        22.5940   28.7486   39.1242 H         1 PRO         0.0524
    106 H42        27.5773   27.9035   37.0664 H         1 GLY         0.1881
    107 H43        28.3822   25.2963   37.1563 H         1 GLY         0.0763
    108 H44        28.8070   25.8987   38.7944 H         1 GLY         0.0763
    109 H45        30.5286   24.9063   36.6327 H         1 SER         0.1884
    110 H46        32.6576   26.6972   37.1433 H         1 SER         0.0823
    111 H47        32.4278   24.6131   34.9190 H         1 SER         0.0606
    112 H48        32.9677   24.3010   36.6036 H         1 SER         0.0606
    113 H49        34.7137   25.7681   36.1856 H         1 SER         0.2097
    114 H50        33.3280   28.5012   36.2394 H         1 VAL         0.1883
    115 H51        32.3913   29.8158   33.9483 H         1 VAL         0.0802
    116 H52        34.1813   30.4527   35.7940 H         1 VAL         0.0343
    117 H53        36.5331   30.3258   35.0282 H         1 VAL         0.0234
    118 H54        36.0129   29.2958   33.6516 H         1 VAL         0.0234
    119 H55        35.8097   28.7111   35.3379 H         1 VAL         0.0234
    120 H56        33.3302   31.9730   34.0607 H         1 VAL         0.0234
    121 H57        34.6122   31.3933   32.9440 H         1 VAL         0.0234
    122 H58        35.0598   32.2528   34.4564 H         1 VAL         0.0234
    123 H59        33.2804   29.7524   31.7166 H         1 TYR         0.1877
    124 H60        33.9297   27.0437   30.8408 H         1 TYR         0.0747
    125 H61        34.2845   28.1812   28.5856 H         1 TYR         0.0446
    126 H62        33.7876   29.7104   29.3865 H         1 TYR         0.0446
    127 H63        31.4355   29.3716   30.8040 H         1 TYR         0.0530
    128 H64        32.6394   27.1574   27.3212 H         1 TYR         0.0530
    129 H65        29.0555   28.8769   30.2963 H         1 TYR         0.0525
    130 H66        30.2581   26.6290   26.8377 H         1 TYR         0.0525
    131 H67        28.0791   26.5166   28.2860 H         1 TYR         0.2458
@<TRIPOS>BOND
     1    1    2 1  
     2    2    3 1  
     3    2    5 1  
     4    3    4 2  
     5    3    9 am 
     6    5    6 1  
     7    5    7 1  
     8    6    8 1  
     9    9   10 1  
    10   10   11 1  
    11   10   13 1  
    12   11   12 2  
    13   11   17 am 
    14   13   14 1  
    15   14   15 1  
    16   14   16 1  
    17   17   18 1  
    18   18   19 1  
    19   19   20 2  
    20   19   21 am 
    21   21   22 1  
    22   21   27 1  
    23   22   23 1  
    24   22   25 1  
    25   23   24 2  
    26   23   28 am 
    27   25   26 1  
    28   26   27 1  
    29   28   29 1  
    30   28   34 1  
    31   29   30 1  
    32   29   32 1  
    33   30   31 2  
    34   30   35 am 
    35   32   33 1  
    36   33   34 1  
    37   35   36 1  
    38   36   37 1  
    39   37   38 2  
    40   37   39 am 
    41   39   40 1  
    42   40   41 1  
    43   40   43 1  
    44   41   42 2  
    45   41   45 am 
    46   43   44 1  
    47   45   46 1  
    48   46   47 1  
    49   46   49 1  
    50   47   48 2  
    51   47   52 am 
    52   49   50 1  
    53   49   51 1  
    54   52   53 1  
    55   53   54 1  
    56   53   56 1  
    57   54   55 ar 
    58   54   64 ar 
    59   56   57 1  
    60   57   58 ar 
    61   57   59 ar 
    62   58   60 ar 
    63   59   61 ar 
    64   60   62 ar 
    65   61   62 ar 
    66   62   63 1  
    67    1   65 1  
    68    1   66 1  
    69    1   67 1  
    70    2   68 1  
    71    5   69 1  
    72    6   70 1  
    73    6   71 1  
    74    7   72 1  
    75    7   73 1  
    76    7   74 1  
    77    8   75 1  
    78    8   76 1  
    79    8   77 1  
    80    9   78 1  
    81   10   79 1  
    82   13   80 1  
    83   13   81 1  
    84   14   82 1  
    85   15   83 1  
    86   15   84 1  
    87   15   85 1  
    88   16   86 1  
    89   16   87 1  
    90   16   88 1  
    91   17   89 1  
    92   18   90 1  
    93   18   91 1  
    94   22   92 1  
    95   25   93 1  
    96   25   94 1  
    97   26   95 1  
    98   26   96 1  
    99   27   97 1  
   100   27   98 1  
   101   29   99 1  
   102   32  100 1  
   103   32  101 1  
   104   33  102 1  
   105   33  103 1  
   106   34  104 1  
   107   34  105 1  
   108   35  106 1  
   109   36  107 1  
   110   36  108 1  
   111   39  109 1  
   112   40  110 1  
   113   43  111 1  
   114   43  112 1  
   115   44  113 1  
   116   45  114 1  
   117   46  115 1  
   118   49  116 1  
   119   50  117 1  
   120   50  118 1  
   121   50  119 1  
   122   51  120 1  
   123   51  121 1  
   124   51  122 1  
   125   52  123 1  
   126   53  124 1  
   127   56  125 1  
   128   56  126 1  
   129   58  127 1  
   130   59  128 1  
   131   60  129 1  
   132   61  130 1  
   133   63  131 1  
@<TRIPOS>SUBSTRUCTURE
     1 ILE         1

