### 
### Created by X-TOOL on Mon Sep 10 21:12:52 2018
### 

@<TRIPOS>MOLECULE
1xs7_ligand
  114   115     1     0     0
SMALL
GAST_HUCK


@<TRIPOS>ATOM
      1 C11        51.1340   21.9440  105.9880 C.3       1 MMI         0.1351
      2 C12        52.4370   21.5240  105.2040 C.3       1 MMI        -0.0063
      3 C13        52.4760   22.1680  103.7940 C.3       1 MMI        -0.0584
      4 C14        52.6040   19.9750  105.0300 C.3       1 MMI        -0.0584
      5 N1         50.9490   23.4400  106.1260 N.am      1 MMI        -0.2409
      6 C16        51.6050   24.3760  106.9810 C.2       1 MMI         0.3218
      7 O12        51.2220   25.5500  106.8670 O.2       1 MMI        -0.3774
      8 O13        52.6070   24.0220  107.9090 O.3       1 MMI        -0.2638
      9 C17        53.8920   24.6710  107.8410 C.3       1 MMI         0.0773
     10 C15        51.0260   21.3160  107.4150 C.2       1 MMI         0.2042
     11 O11        51.9670   21.0430  108.1150 O.2       1 MMI        -0.3944
     12 N21        49.7720   21.1330  107.8500 N.am      1 MMI        -0.2616
     13 C21        49.3790   19.9010  108.5280 C.3       1 MMI         0.1474
     14 C22        48.9820   20.0990  110.0240 C.3       1 MMI         0.0775
     15 C23        50.1510   20.5130  110.9630 C.2       1 MMI         0.1805
     16 O22        49.9040   21.1390  111.9940 O.2       1 MMI        -0.3968
     17 N22        51.4480   20.1180  110.6110 N.am      1 MMI        -0.2868
     18 C29        48.1710   19.2970  107.7500 C.2       1 MMI         0.2043
     19 O21        47.1380   19.9670  107.5740 O.2       1 MMI        -0.3944
     20 C28        54.6780   24.4640  109.1470 C.3       1 MMI        -0.0251
     21 C27        54.7770   22.9740  109.5200 C.3       1 MMI        -0.0506
     22 C26        53.6010   22.4770  110.3890 C.3       1 MMI        -0.0512
     23 C25        53.7610   20.9810  110.7070 C.3       1 MMI        -0.0327
     24 C24        52.6040   20.4500  111.5040 C.3       1 MMI         0.0309
     25 N3         48.3780   17.9820  107.2780 N.am      1 MMI        -0.2794
     26 C31        47.3550   17.2190  106.4860 C.3       1 MMI         0.0683
     27 C32        46.6740   16.1670  107.4360 C.3       1 MMI         0.0804
     28 O31        47.5090   15.8990  108.5840 O.3       1 MMI        -0.3894
     29 C33        47.9670   16.5480  105.2070 C.3       1 MMI        -0.0251
     30 C34        48.6840   17.5140  104.1880 C.3       1 MMI        -0.0446
     31 C35        47.7420   18.6130  103.6260 C.3       1 MMI        -0.0626
     32 C36        49.2680   16.7410  102.9860 C.3       1 MMI        -0.0626
     33 C37        45.2510   16.6630  107.8600 C.3       1 MMI        -0.0052
     34 C38        44.6990   16.6760  109.3370 C.3       1 MMI         0.0483
     35 C39        45.5330   17.4860  110.3460 C.3       1 MMI        -0.0452
     36 C30        43.2550   17.2490  109.2880 C.2       1 MMI         0.1811
     37 O32        43.0300   18.4640  109.3390 O.2       1 MMI        -0.3966
     38 N4         42.2310   16.2660  109.1380 N.am      1 MMI        -0.2652
     39 C41        40.7380   16.5220  109.0140 C.3       1 MMI         0.1332
     40 C42        39.9290   15.1880  108.7480 C.3       1 MMI        -0.0063
     41 C45        40.2870   17.2560  110.3100 C.2       1 MMI         0.2037
     42 O4         40.7410   16.9340  111.4010 O.2       1 MMI        -0.3944
     43 C44        40.3700   14.4800  107.4640 C.3       1 MMI        -0.0584
     44 C43        38.4280   15.4120  108.6060 C.3       1 MMI        -0.0584
     45 N5         39.3510   18.2790  110.0950 N.am      1 MMI        -0.2737
     46 C51        38.7740   19.1170  111.1790 C.3       1 MMI         0.0645
     47 C52        38.2260   20.4530  110.6640 C.ar      1 MMI        -0.0210
     48 C57        36.8190   20.6780  110.4390 C.ar      1 MMI        -0.0584
     49 C56        36.3350   21.9450  109.9570 C.ar      1 MMI        -0.0685
     50 C55        37.2600   23.0130  109.6980 C.ar      1 MMI        -0.0687
     51 C54        38.6620   22.8060  109.9160 C.ar      1 MMI        -0.0685
     52 C53        39.1320   21.5440  110.3960 C.ar      1 MMI        -0.0584
     53 H1         50.2873   21.5636  105.3979 H         1 MMI         0.0802
     54 H2         53.2979   21.8943  105.7799 H         1 MMI         0.0342
     55 H3         53.3940   21.8567  103.2740 H         1 MMI         0.0234
     56 H4         52.4630   23.2636  103.8908 H         1 MMI         0.0234
     57 H5         51.5987   21.8404  103.2169 H         1 MMI         0.0234
     58 H6         52.5800   19.4905  106.0172 H         1 MMI         0.0234
     59 H7         53.5659   19.7626  104.5406 H         1 MMI         0.0234
     60 H8         51.7832   19.5850  104.4102 H         1 MMI         0.0234
     61 H9         50.2571   23.8355  105.5220 H         1 MMI         0.1899
     62 H10        53.7437   25.7484  107.6763 H         1 MMI         0.0611
     63 H11        54.4661   24.2476  107.0036 H         1 MMI         0.0611
     64 H12        49.0930   21.8532  107.7077 H         1 MMI         0.1885
     65 H13        50.2248   19.1988  108.4894 H         1 MMI         0.0826
     66 H14        48.5650   19.1512  110.3951 H         1 MMI         0.0551
     67 H15        48.2114   20.8824  110.0722 H         1 MMI         0.0551
     68 H16        51.6026   19.6133  109.7617 H         1 MMI         0.1851
     69 H17        54.1678   25.0020  109.9596 H         1 MMI         0.0291
     70 H18        55.6932   24.8682  109.0203 H         1 MMI         0.0291
     71 H19        55.7124   22.8158  110.0768 H         1 MMI         0.0266
     72 H20        54.7981   22.3835  108.5922 H         1 MMI         0.0266
     73 H21        52.6578   22.6325  109.8449 H         1 MMI         0.0266
     74 H22        53.5799   23.0468  111.3297 H         1 MMI         0.0266
     75 H23        54.6861   20.8373  111.2845 H         1 MMI         0.0285
     76 H24        53.8280   20.4219  109.7621 H         1 MMI         0.0285
     77 H25        52.9205   19.5411  112.0366 H         1 MMI         0.0520
     78 H26        52.2891   21.2113  112.2329 H         1 MMI         0.0520
     79 H27        49.2498   17.5364  107.4814 H         1 MMI         0.1856
     80 H28        46.5842   17.9279  106.1493 H         1 MMI         0.0582
     81 H29        46.5542   15.2268  106.8778 H         1 MMI         0.0618
     82 H30        48.3449   15.5542  108.2926 H         1 MMI         0.2099
     83 H31        47.1510   16.0412  104.6711 H         1 MMI         0.0291
     84 H32        48.7053   15.8035  105.5395 H         1 MMI         0.0291
     85 H33        49.5093   18.0065  104.7230 H         1 MMI         0.0296
     86 H34        48.3000   19.2506  102.9246 H         1 MMI         0.0232
     87 H35        47.3594   19.2269  104.4547 H         1 MMI         0.0232
     88 H36        46.8993   18.1401  103.1005 H         1 MMI         0.0232
     89 H37        49.9424   15.9520  103.3502 H         1 MMI         0.0232
     90 H38        49.8288   17.4341  102.3418 H         1 MMI         0.0232
     91 H39        48.4490   16.2861  102.4097 H         1 MMI         0.0232
     92 H40        44.5430   16.0452  107.2882 H         1 MMI         0.0318
     93 H41        45.1894   17.7057  107.5151 H         1 MMI         0.0318
     94 H42        44.6632   15.6363  109.6945 H         1 MMI         0.0536
     95 H43        45.0632   17.4295  111.3390 H         1 MMI         0.0257
     96 H44        45.5812   18.5362  110.0225 H         1 MMI         0.0257
     97 H45        46.5504   17.0711  110.3976 H         1 MMI         0.0257
     98 H46        42.5262   15.3109  109.1118 H         1 MMI         0.1883
     99 H47        40.5657   17.1904  108.1575 H         1 MMI         0.0802
    100 H48        40.1069   14.5187  109.6026 H         1 MMI         0.0343
    101 H49        39.7776   13.5631  107.3289 H         1 MMI         0.0234
    102 H50        41.4364   14.2202  107.5363 H         1 MMI         0.0234
    103 H51        40.2128   15.1480  106.6044 H         1 MMI         0.0234
    104 H52        38.0468   15.9211  109.5035 H         1 MMI         0.0234
    105 H53        37.9217   14.4422  108.4917 H         1 MMI         0.0234
    106 H54        38.2323   16.0344  107.7204 H         1 MMI         0.0234
    107 H55        39.0543   18.4549  109.1564 H         1 MMI         0.1878
    108 H56        39.5590   19.3213  111.9219 H         1 MMI         0.0683
    109 H57        37.9538   18.5603  111.6558 H         1 MMI         0.0683
    110 H58        36.1137   19.8788  110.6364 H         1 MMI         0.0557
    111 H59        35.2742   22.0930  109.7897 H         1 MMI         0.0599
    112 H60        36.9000   23.9706  109.3396 H         1 MMI         0.0559
    113 H61        39.3655   23.6063  109.7169 H         1 MMI         0.0599
    114 H62        40.1938   21.4033  110.5626 H         1 MMI         0.0557
@<TRIPOS>BOND
     1    1    2 1  
     2    1    5 1  
     3    1   10 1  
     4    2    3 1  
     5    2    4 1  
     6    5    6 am 
     7    6    7 2  
     8    6    8 1  
     9    8    9 1  
    10    9   20 1  
    11   10   11 2  
    12   10   12 am 
    13   12   13 1  
    14   13   14 1  
    15   13   18 1  
    16   14   15 1  
    17   15   16 2  
    18   15   17 am 
    19   17   24 1  
    20   18   19 2  
    21   18   25 am 
    22   20   21 1  
    23   21   22 1  
    24   22   23 1  
    25   23   24 1  
    26   25   26 1  
    27   26   27 1  
    28   26   29 1  
    29   27   28 1  
    30   27   33 1  
    31   29   30 1  
    32   30   31 1  
    33   30   32 1  
    34   33   34 1  
    35   34   35 1  
    36   34   36 1  
    37   36   37 2  
    38   36   38 am 
    39   38   39 1  
    40   39   40 1  
    41   39   41 1  
    42   40   43 1  
    43   40   44 1  
    44   41   42 2  
    45   41   45 am 
    46   45   46 1  
    47   46   47 1  
    48   47   48 ar 
    49   47   52 ar 
    50   48   49 ar 
    51   49   50 ar 
    52   50   51 ar 
    53   51   52 ar 
    54    1   53 1  
    55    2   54 1  
    56    3   55 1  
    57    3   56 1  
    58    3   57 1  
    59    4   58 1  
    60    4   59 1  
    61    4   60 1  
    62    5   61 1  
    63    9   62 1  
    64    9   63 1  
    65   12   64 1  
    66   13   65 1  
    67   14   66 1  
    68   14   67 1  
    69   17   68 1  
    70   20   69 1  
    71   20   70 1  
    72   21   71 1  
    73   21   72 1  
    74   22   73 1  
    75   22   74 1  
    76   23   75 1  
    77   23   76 1  
    78   24   77 1  
    79   24   78 1  
    80   25   79 1  
    81   26   80 1  
    82   27   81 1  
    83   28   82 1  
    84   29   83 1  
    85   29   84 1  
    86   30   85 1  
    87   31   86 1  
    88   31   87 1  
    89   31   88 1  
    90   32   89 1  
    91   32   90 1  
    92   32   91 1  
    93   33   92 1  
    94   33   93 1  
    95   34   94 1  
    96   35   95 1  
    97   35   96 1  
    98   35   97 1  
    99   38   98 1  
   100   39   99 1  
   101   40  100 1  
   102   43  101 1  
   103   43  102 1  
   104   43  103 1  
   105   44  104 1  
   106   44  105 1  
   107   44  106 1  
   108   45  107 1  
   109   46  108 1  
   110   46  109 1  
   111   48  110 1  
   112   49  111 1  
   113   50  112 1  
   114   51  113 1  
   115   52  114 1  
@<TRIPOS>SUBSTRUCTURE
     1 MMI         1

