### 
### Created by X-TOOL on Mon Sep 10 21:12:52 2018
### 

@<TRIPOS>MOLECULE
1xt8_ligand
   14    13     1     0     0
SMALL
GAST_HUCK


@<TRIPOS>ATOM
      1 N          -8.7320   82.3120  -31.0620 N.4       1 CYS         0.2333
      2 CA         -7.9630   81.7460  -29.8920 C.3       1 CYS         0.0372
      3 C          -8.3110   80.2840  -29.6380 C.2       1 CYS         0.0852
      4 O          -7.9460   79.7080  -28.6100 O.co2     1 CYS        -0.5642
      5 CB         -8.2280   82.5590  -28.6330 C.3       1 CYS         0.0457
      6 SG         -9.9770   82.5870  -28.1410 S.3       1 CYS        -0.1708
      7 OXT        -8.9770   79.6390  -30.4560 O.co2     1 CYS        -0.5642
      8 H1         -8.4751   83.2772  -31.1975 H         1 CYS         0.2010
      9 H2         -9.7207   82.2504  -30.8757 H         1 CYS         0.2010
     10 H3         -8.5134   81.7862  -31.8937 H         1 CYS         0.2010
     11 H4         -6.8904   81.8083  -30.1277 H         1 CYS         0.1032
     12 H5         -7.9003   83.5937  -28.8116 H         1 CYS         0.0448
     13 H6         -7.6418   82.1257  -27.8092 H         1 CYS         0.0448
     14 H7        -10.0807   83.1399  -27.3046 H         1 CYS         0.1019
@<TRIPOS>BOND
     1    1    2 1  
     2    2    3 1  
     3    2    5 1  
     4    3    4 ar 
     5    3    7 ar 
     6    5    6 1  
     7    1    8 1  
     8    1    9 1  
     9    1   10 1  
    10    2   11 1  
    11    5   12 1  
    12    5   13 1  
    13    6   14 1  
@<TRIPOS>SUBSTRUCTURE
     1 CYS         1

