### 
### Created by X-TOOL on Mon Sep 10 21:12:52 2018
### 

@<TRIPOS>MOLECULE
1xuc_ligand
   50    52     1     0     0
SMALL
GAST_HUCK


@<TRIPOS>ATOM
      1 C1        -11.6440   27.4240   44.9340 C.ar      1 PB3         0.1460
      2 C2        -11.0940   27.9990   46.0710 C.ar      1 PB3         0.0307
      3 C3         -9.7160   28.0400   46.1830 C.ar      1 PB3         0.1460
      4 N6        -10.8160   26.8970   43.9190 N.ar      1 PB3        -0.2378
      5 C7         -5.9120   27.9920   53.6390 C.3       1 PB3        -0.0327
      6 C8        -18.2710   22.2390   44.1490 C.3       1 PB3        -0.0327
      7 C9         -9.1310   28.6250   47.3770 C.2       1 PB3         0.2363
      8 C11        -7.0140   28.8070   48.7260 C.3       1 PB3         0.0629
      9 C12        -7.1980   27.9930   50.0040 C.ar      1 PB3        -0.0278
     10 C15       -13.1020   27.3630   44.8160 C.2       1 PB3         0.2363
     11 C21       -16.6420   24.2110   43.9590 C.ar      1 PB3        -0.0575
     12 C24       -15.7220   23.6980   46.6590 C.ar      1 PB3        -0.0752
     13 C30        -8.0850   26.8410   50.0560 C.ar      1 PB3        -0.0653
     14 C31        -8.2640   26.0830   51.2480 C.ar      1 PB3        -0.0752
     15 C32        -7.5510   26.4620   52.4200 C.ar      1 PB3        -0.0675
     16 C34        -6.4910   28.3600   51.1880 C.ar      1 PB3        -0.0575
     17 N4         -8.8800   27.5130   45.1690 N.ar      1 PB3        -0.2378
     18 C5         -9.4260   26.9340   44.0180 C.ar      1 PB3         0.1005
     19 N10        -7.7950   28.3330   47.5470 N.am      1 PB3        -0.2711
     20 N16       -13.5970   26.4180   43.9180 N.am      1 PB3        -0.2711
     21 C17       -15.0460   26.1940   43.6840 C.3       1 PB3         0.0629
     22 C18       -15.6270   25.0460   44.5180 C.ar      1 PB3        -0.0278
     23 C4        -17.1850   23.1330   44.7490 C.ar      1 PB3        -0.0528
     24 C23       -16.7340   22.8730   46.0870 C.ar      1 PB3        -0.0675
     25 C25       -15.1780   24.7720   45.8770 C.ar      1 PB3        -0.0653
     26 C6         -6.6750   27.5910   52.3780 C.ar      1 PB3        -0.0528
     27 O41       -13.9190   28.0490   45.4520 O.2       1 PB3        -0.3734
     28 O42        -9.7050   29.3010   48.2330 O.2       1 PB3        -0.3734
     29 H1        -11.7278   28.4054   46.8509 H         1 PB3         0.0881
     30 H2         -6.1663   27.3014   54.4566 H         1 PB3         0.0390
     31 H3         -6.1898   29.0171   53.9253 H         1 PB3         0.0390
     32 H4         -4.8305   27.9462   53.4434 H         1 PB3         0.0390
     33 H5        -18.4973   22.5734   43.1258 H         1 PB3         0.0390
     34 H6        -19.1801   22.3027   44.7650 H         1 PB3         0.0390
     35 H7        -17.9168   21.1979   44.1245 H         1 PB3         0.0390
     36 H8         -5.9473   28.7822   48.4585 H         1 PB3         0.0682
     37 H9         -7.3149   29.8436   48.9377 H         1 PB3         0.0682
     38 H10       -17.0008   24.3856   42.9511 H         1 PB3         0.0495
     39 H11       -15.3690   23.5174   47.6679 H         1 PB3         0.0582
     40 H12        -8.6250   26.5515   49.1618 H         1 PB3         0.0500
     41 H13        -8.9331   25.2303   51.2626 H         1 PB3         0.0582
     42 H14        -7.6713   25.8985   53.3382 H         1 PB3         0.0499
     43 H15        -5.8218   29.2128   51.1846 H         1 PB3         0.0495
     44 H16        -8.7938   26.5307   43.2352 H         1 PB3         0.1155
     45 H17        -7.3313   27.7821   46.8531 H         1 PB3         0.1878
     46 H18       -12.9424   25.8626   43.4052 H         1 PB3         0.1878
     47 H19       -15.1955   25.9618   42.6192 H         1 PB3         0.0682
     48 H20       -15.5870   27.1176   43.9374 H         1 PB3         0.0682
     49 H21       -17.1597   22.0557   46.6578 H         1 PB3         0.0499
     50 H22       -14.4083   25.3995   46.3115 H         1 PB3         0.0500
@<TRIPOS>BOND
     1    1    2 ar 
     2    1    4 ar 
     3   10    1 1  
     4    2    3 ar 
     5    3    7 1  
     6    3   17 ar 
     7    4   18 ar 
     8   26    5 1  
     9   23    6 1  
    10    7   19 am 
    11    7   28 2  
    12    8    9 1  
    13   19    8 1  
    14    9   13 ar 
    15    9   16 ar 
    16   20   10 am 
    17   10   27 2  
    18   22   11 ar 
    19   11   23 ar 
    20   12   24 ar 
    21   25   12 ar 
    22   13   14 ar 
    23   14   15 ar 
    24   26   15 ar 
    25   16   26 ar 
    26   18   17 ar 
    27   21   20 1  
    28   22   21 1  
    29   22   25 ar 
    30   23   24 ar 
    31    2   29 1  
    32    5   30 1  
    33    5   31 1  
    34    5   32 1  
    35    6   33 1  
    36    6   34 1  
    37    6   35 1  
    38    8   36 1  
    39    8   37 1  
    40   11   38 1  
    41   12   39 1  
    42   13   40 1  
    43   14   41 1  
    44   15   42 1  
    45   16   43 1  
    46   18   44 1  
    47   19   45 1  
    48   20   46 1  
    49   21   47 1  
    50   21   48 1  
    51   24   49 1  
    52   25   50 1  
@<TRIPOS>SUBSTRUCTURE
     1 PB3         1

