### 
### Created by X-TOOL on Mon Sep 10 21:12:52 2018
### 

@<TRIPOS>MOLECULE
1xud_ligand
   50    52     1     0     0
SMALL
GAST_HUCK


@<TRIPOS>ATOM
      1 C1        -11.6020   27.3320   44.8470 C.ar      1 PB4         0.1460
      2 C2        -11.0420   27.9400   45.9640 C.ar      1 PB4         0.0307
      3 C3         -9.6600   27.9910   46.0580 C.ar      1 PB4         0.1460
      4 C7         -5.8050   27.9660   53.4540 C.3       1 PB4        -0.0319
      5 C8        -18.2930   22.1760   44.2470 C.3       1 PB4        -0.0319
      6 C9         -9.0580   28.6100   47.2290 C.2       1 PB4         0.2362
      7 C10        -6.9290   28.8230   48.5460 C.3       1 PB4         0.0611
      8 C11        -7.0870   28.0030   49.8160 C.ar      1 PB4        -0.0316
      9 C12       -13.0640   27.2600   44.7390 C.2       1 PB4         0.2362
     10 C13       -15.0110   26.0620   43.6260 C.3       1 PB4         0.0611
     11 C14       -15.6040   24.9540   44.5050 C.ar      1 PB4        -0.0316
     12 C15       -16.6340   24.1120   43.9820 C.ar      1 PB4        -0.0589
     13 C16       -16.7340   22.8610   46.1670 C.ar      1 PB4         0.1253
     14 C19        -7.9500   26.8380   49.8460 C.ar      1 PB4        -0.0670
     15 C20        -8.1200   26.0570   51.0140 C.ar      1 PB4        -0.0415
     16 C21        -7.4200   26.4240   52.1900 C.ar      1 PB4         0.1253
     17 C22        -6.3860   28.3680   51.0050 C.ar      1 PB4        -0.0589
     18 N1         -8.8310   27.4410   45.0490 N.ar      1 PB4        -0.2378
     19 C5         -9.3880   26.8280   43.9210 C.ar      1 PB4         0.1005
     20 N2        -10.7790   26.7810   43.8380 N.ar      1 PB4        -0.2378
     21 N3         -7.7200   28.3150   47.3890 N.am      1 PB4        -0.2717
     22 N4        -13.5610   26.2960   43.8550 N.am      1 PB4        -0.2717
     23 C6        -17.1890   23.0740   44.8160 C.ar      1 PB4        -0.0189
     24 C17       -15.7070   23.6950   46.6970 C.ar      1 PB4        -0.0415
     25 C18       -15.1530   24.7270   45.8700 C.ar      1 PB4        -0.0670
     26 C4         -6.5590   27.5750   52.1790 C.ar      1 PB4        -0.0189
     27 O1        -13.8830   27.9540   45.3680 O.2       1 PB4        -0.3734
     28 O2         -9.6150   29.3170   48.0770 O.2       1 PB4        -0.3734
     29 F1         -7.5890   25.5950   53.4450 F         1 PB4        -0.1949
     30 F2        -17.2980   21.8280   46.9770 F         1 PB4        -0.1949
     31 H1        -11.6689   28.3629   46.7407 H         1 PB4         0.0881
     32 H2         -5.1997   28.8640   53.2612 H         1 PB4         0.0382
     33 H3         -5.1471   27.1390   53.7591 H         1 PB4         0.0382
     34 H4         -6.5268   28.1758   54.2571 H         1 PB4         0.0382
     35 H5        -18.5138   22.4773   43.2124 H         1 PB4         0.0382
     36 H6        -19.2006   22.2775   44.8601 H         1 PB4         0.0382
     37 H7        -17.9569   21.1287   44.2601 H         1 PB4         0.0382
     38 H8         -5.8657   28.8215   48.2643 H         1 PB4         0.0675
     39 H9         -7.2507   29.8533   48.7582 H         1 PB4         0.0675
     40 H10       -15.5508   26.9973   43.8352 H         1 PB4         0.0675
     41 H11       -15.1553   25.7833   42.5717 H         1 PB4         0.0675
     42 H12       -16.9943   24.2520   42.9693 H         1 PB4         0.0485
     43 H13        -8.4821   26.5562   48.9446 H         1 PB4         0.0491
     44 H14        -8.7745   25.1929   51.0090 H         1 PB4         0.0568
     45 H15        -5.7331   29.2332   51.0159 H         1 PB4         0.0485
     46 H16        -8.7626   26.4063   43.1424 H         1 PB4         0.1155
     47 H17        -7.2660   27.7419   46.7068 H         1 PB4         0.1877
     48 H18       -12.9056   25.7343   43.3501 H         1 PB4         0.1877
     49 H19       -15.3500   23.5513   47.7104 H         1 PB4         0.0568
     50 H20       -14.3716   25.3597   46.2753 H         1 PB4         0.0491
@<TRIPOS>BOND
     1    2    1 ar 
     2    1    9 1  
     3    1   20 ar 
     4    3    2 ar 
     5    6    3 1  
     6    3   18 ar 
     7   26    4 1  
     8   23    5 1  
     9   21    6 am 
    10    6   28 2  
    11    8    7 1  
    12    7   21 1  
    13   14    8 ar 
    14    8   17 ar 
    15    9   22 am 
    16    9   27 2  
    17   10   11 1  
    18   22   10 1  
    19   11   12 ar 
    20   11   25 ar 
    21   12   23 ar 
    22   23   13 ar 
    23   13   24 ar 
    24   13   30 1  
    25   15   14 ar 
    26   16   15 ar 
    27   16   26 ar 
    28   16   29 1  
    29   17   26 ar 
    30   18   19 ar 
    31   19   20 ar 
    32   24   25 ar 
    33    2   31 1  
    34    4   32 1  
    35    4   33 1  
    36    4   34 1  
    37    5   35 1  
    38    5   36 1  
    39    5   37 1  
    40    7   38 1  
    41    7   39 1  
    42   10   40 1  
    43   10   41 1  
    44   12   42 1  
    45   14   43 1  
    46   15   44 1  
    47   17   45 1  
    48   19   46 1  
    49   21   47 1  
    50   22   48 1  
    51   24   49 1  
    52   25   50 1  
@<TRIPOS>SUBSTRUCTURE
     1 PB4         1

