### 
### Created by X-TOOL on Mon Sep 10 21:12:46 2018
### 

@<TRIPOS>MOLECULE
1xug_ligand
   43    46     1     0     0
SMALL
GAST_HUCK


@<TRIPOS>ATOM
      1 C1         43.7570   -2.8580   26.3910 C.ar      1 BAB         0.0111
      2 C2         44.3310   -1.5610   26.6120 C.ar      1 BAB        -0.0732
      3 C3         44.1330   -0.8570   27.8130 C.ar      1 BAB        -0.0653
      4 C4         43.3590   -1.4860   28.7510 C.ar      1 BAB         0.0217
      5 C5         42.8040   -2.6870   28.5920 C.ar      1 BAB         0.0787
      6 C6         42.9680   -3.4190   27.4350 C.ar      1 BAB        -0.0368
      7 C7         43.9630   -3.5390   25.1890 C.cat     1 BAB         0.2293
      8 N1         43.7140   -4.8230   25.1280 N.pl3     1 BAB        -0.2731
      9 N2         44.3900   -2.8790   24.1360 N.pl3     1 BAB        -0.2731
     10 N3         43.0250   -1.0630   29.9250 N.2       1 BAB        -0.3147
     11 N4         42.1410   -2.9560   29.6960 N.pl3     1 BAB        -0.2443
     12 C8         42.2820   -1.9390   30.5240 C.2       1 BAB         0.1412
     13 C1'        45.1710    0.3350   36.5420 C.ar      1 BAB         0.0111
     14 C2'        45.5520    1.2280   35.4880 C.ar      1 BAB        -0.0732
     15 C3'        44.9990    1.1550   34.2020 C.ar      1 BAB        -0.0653
     16 C4'        44.0590    0.1710   33.9990 C.ar      1 BAB         0.0217
     17 C5'        43.6580   -0.6980   34.9500 C.ar      1 BAB         0.0787
     18 C6'        44.1830   -0.6590   36.2420 C.ar      1 BAB        -0.0368
     19 C7'        45.7780    0.4500   37.8100 C.cat     1 BAB         0.2293
     20 N1'        45.1760    0.0310   38.9020 N.pl3     1 BAB        -0.2731
     21 N3'        43.4170   -0.1020   32.9100 N.2       1 BAB        -0.3147
     22 N4'        42.7630   -1.4900   34.3900 N.pl3     1 BAB        -0.2443
     23 C8'        42.6280   -1.1080   33.1340 C.2       1 BAB         0.1412
     24 C9         41.6830   -1.7130   32.0090 C.3       1 BAB         0.1108
     25 N2'        46.9800    0.9820   37.8570 N.pl3     1 BAB        -0.2731
     26 H1         44.9340   -1.1117   25.8312 H         1 BAB         0.0516
     27 H2         44.5658    0.1218   27.9853 H         1 BAB         0.0536
     28 H3         42.5089   -4.3946   27.3234 H         1 BAB         0.0541
     29 H4         43.8624   -5.3351   24.2467 H         1 BAB         0.3180
     30 H5         43.3697   -5.3210   25.9613 H         1 BAB         0.3180
     31 H6         44.5805   -1.8690   24.2036 H         1 BAB         0.3180
     32 H7         44.5342   -3.3717   23.2430 H         1 BAB         0.3180
     33 H8         41.6033   -3.8146   29.8821 H         1 BAB         0.2324
     34 H9         46.2963    1.9890   35.6930 H         1 BAB         0.0516
     35 H10        45.2953    1.8355   33.4119 H         1 BAB         0.0536
     36 H11        43.8526   -1.3615   36.9985 H         1 BAB         0.0541
     37 H12        45.6415    0.1268   39.8158 H         1 BAB         0.3180
     38 H13        44.2391   -0.3929   38.8432 H         1 BAB         0.3180
     39 H14        42.2619   -2.2641   34.8489 H         1 BAB         0.2324
     40 H15        41.3374   -2.6928   32.3703 H         1 BAB         0.0794
     41 H16        40.8230   -1.0343   31.9104 H         1 BAB         0.0794
     42 H17        47.4348    1.3042   36.9908 H         1 BAB         0.3180
     43 H18        47.4665    1.0764   38.7600 H         1 BAB         0.3180
@<TRIPOS>BOND
     1    1    2 ar 
     2    6    1 ar 
     3    1    7 1  
     4    3    2 ar 
     5    4    3 ar 
     6    5    4 ar 
     7   10    4 1  
     8    5    6 ar 
     9   11    5 1  
    10    7    8 ar 
    11    7    9 ar 
    12   12   10 2  
    13   12   11 1  
    14   24   12 1  
    15   13   14 ar 
    16   18   13 ar 
    17   13   19 1  
    18   15   14 ar 
    19   16   15 ar 
    20   17   16 ar 
    21   21   16 1  
    22   17   18 ar 
    23   22   17 1  
    24   19   20 ar 
    25   23   21 2  
    26   23   22 1  
    27   24   23 1  
    28   19   25 ar 
    29    2   26 1  
    30    3   27 1  
    31    6   28 1  
    32    8   29 1  
    33    8   30 1  
    34    9   31 1  
    35    9   32 1  
    36   11   33 1  
    37   14   34 1  
    38   15   35 1  
    39   18   36 1  
    40   20   37 1  
    41   20   38 1  
    42   22   39 1  
    43   24   40 1  
    44   24   41 1  
    45   25   42 1  
    46   25   43 1  
@<TRIPOS>SUBSTRUCTURE
     1 BAB         1

