### 
### Created by X-TOOL on Mon Sep 10 21:12:52 2018
### 

@<TRIPOS>MOLECULE
1xuo_ligand
   76    80     1     0     0
SMALL
GAST_HUCK


@<TRIPOS>ATOM
      1 O70         5.7540   48.6080   44.4640 O.2       1 LA1        -0.3943
      2 C69         6.5260   48.8910   43.5580 C.2       1 LA1         0.2037
      3 N71         7.4750   49.8360   43.6580 N.am      1 LA1        -0.2880
      4 C73         7.6380   50.6520   44.8480 C.3       1 LA1         0.0196
      5 C30         6.4900   48.1240   42.2530 C.3       1 LA1         0.1433
      6 C49         5.0530   47.9940   41.7180 C.3       1 LA1         0.0219
      7 C52         4.9090   47.1680   40.4530 C.ar      1 LA1        -0.0377
      8 C59         4.2490   45.9140   40.4730 C.ar      1 LA1        -0.0547
      9 C58         4.0880   45.1750   39.2970 C.ar      1 LA1        -0.0259
     10 C61         3.4390   43.9140   39.2930 C.ar      1 LA1        -0.0578
     11 C63         3.3160   43.2050   38.0900 C.ar      1 LA1        -0.0637
     12 C65         3.8350   43.7190   36.8900 C.ar      1 LA1        -0.0634
     13 C67         4.4940   44.9510   36.9110 C.ar      1 LA1        -0.0568
     14 C57         4.6170   45.6640   38.1080 C.ar      1 LA1        -0.0222
     15 C55         5.2720   46.8990   38.0990 C.ar      1 LA1        -0.0567
     16 C53         5.4200   47.6380   39.2680 C.ar      1 LA1        -0.0564
     17 N2          7.1120   46.8150   42.4690 N.am      1 LA1        -0.2458
     18 C3          6.4510   45.8030   43.2780 C.3       1 LA1         0.0536
     19 C6          7.2330   45.5660   44.5800 C.3       1 LA1         0.0583
     20 C9          8.5560   44.8330   44.4840 C.2       1 LA1         0.1846
     21 O10         8.9430   44.3120   45.5260 O.2       1 LA1        -0.3965
     22 N11         9.3430   44.7280   43.4140 N.am      1 LA1        -0.2393
     23 C12         9.0340   45.2680   42.0890 C.3       1 LA1         0.1362
     24 C14         8.3260   44.1020   41.2930 C.3       1 LA1        -0.0097
     25 C17         7.9100   44.3890   39.8340 C.3       1 LA1        -0.0425
     26 C23         7.1500   43.1550   39.2660 C.3       1 LA1        -0.0625
     27 C19         9.1280   44.7140   38.9730 C.3       1 LA1        -0.0625
     28 C1          8.3280   46.5940   41.9450 C.2       1 LA1         0.2070
     29 O32         8.9410   47.4310   41.2770 O.2       1 LA1        -0.3942
     30 C27        10.5780   43.9700   43.5720 C.3       1 LA1         0.0759
     31 C33        11.6790   44.8700   44.0280 C.ar      1 LA1         0.0096
     32 C39        11.9400   45.0230   45.4460 C.ar      1 LA1        -0.0331
     33 C38        13.0710   45.9220   45.8690 C.ar      1 LA1        -0.0006
     34 C41        13.3550   46.0950   47.2300 C.ar      1 LA1        -0.0496
     35 C43        14.4100   46.9390   47.5940 C.ar      1 LA1        -0.0583
     36 C45        15.1660   47.6020   46.6190 C.ar      1 LA1        -0.0580
     37 C47        14.8790   47.4220   45.2630 C.ar      1 LA1        -0.0418
     38 C37        13.8200   46.5750   44.8980 C.ar      1 LA1         0.0424
     39 N36        13.4960   46.3680   43.5150 N.ar      1 LA1        -0.2982
     40 C34        12.4060   45.4990   43.1220 C.ar      1 LA1         0.0171
     41 H1          8.0919   49.9831   42.8848 H         1 LA1         0.1848
     42 H2          8.4732   51.3525   44.7006 H         1 LA1         0.0484
     43 H3          7.8511   50.0038   45.7108 H         1 LA1         0.0484
     44 H4          6.7133   51.2180   45.0340 H         1 LA1         0.0484
     45 H5          7.0816   48.6734   41.5059 H         1 LA1         0.0826
     46 H6          4.6743   49.0054   41.5094 H         1 LA1         0.0476
     47 H7          4.4386   47.5268   42.5017 H         1 LA1         0.0476
     48 H8          3.8654   45.5241   41.4089 H         1 LA1         0.0531
     49 H9          3.0411   43.5016   40.2132 H         1 LA1         0.0603
     50 H10         2.8125   42.2450   38.0856 H         1 LA1         0.0611
     51 H11         3.7260   43.1686   35.9625 H         1 LA1         0.0598
     52 H12         4.9115   45.3557   35.9961 H         1 LA1         0.0619
     53 H13         5.6701   47.2861   37.1680 H         1 LA1         0.0620
     54 H14         5.9406   48.5885   39.2437 H         1 LA1         0.0586
     55 H15         6.3980   44.8623   42.7103 H         1 LA1         0.0549
     56 H16         5.4334   46.1416   43.5225 H         1 LA1         0.0549
     57 H17         6.5839   44.9854   45.2520 H         1 LA1         0.0523
     58 H18         7.4349   46.5511   45.0259 H         1 LA1         0.0523
     59 H19        10.0100   45.4334   41.6093 H         1 LA1         0.0804
     60 H20         7.4164   43.8284   41.8478 H         1 LA1         0.0315
     61 H21         9.0170   43.2463   41.2769 H         1 LA1         0.0315
     62 H22         7.2345   45.2571   39.8234 H         1 LA1         0.0298
     63 H23         6.8515   43.3549   38.2263 H         1 LA1         0.0232
     64 H24         6.2537   42.9643   39.8745 H         1 LA1         0.0232
     65 H25         7.8077   42.2738   39.2956 H         1 LA1         0.0232
     66 H26         9.6499   45.5875   39.3910 H         1 LA1         0.0232
     67 H27         8.8022   44.9381   37.9466 H         1 LA1         0.0232
     68 H28         9.8096   43.8507   38.9611 H         1 LA1         0.0232
     69 H29        10.8534   43.5184   42.6075 H         1 LA1         0.0698
     70 H30        10.4246   43.1763   44.3180 H         1 LA1         0.0698
     71 H31        11.3368   44.5039   46.1820 H         1 LA1         0.0680
     72 H32        12.7690   45.5851   47.9861 H         1 LA1         0.0635
     73 H33        14.6449   47.0814   48.6426 H         1 LA1         0.0635
     74 H34        15.9766   48.2571   46.9171 H         1 LA1         0.0634
     75 H35        15.4650   47.9285   44.5046 H         1 LA1         0.0639
     76 H36        12.1837   45.3629   42.0698 H         1 LA1         0.0834
@<TRIPOS>BOND
     1    1    2 2  
     2    2    3 am 
     3    2    5 1  
     4    3    4 1  
     5    5    6 1  
     6    5   17 1  
     7    6    7 1  
     8    7    8 ar 
     9    7   16 ar 
    10    8    9 ar 
    11    9   10 ar 
    12    9   14 ar 
    13   10   11 ar 
    14   11   12 ar 
    15   12   13 ar 
    16   13   14 ar 
    17   14   15 ar 
    18   15   16 ar 
    19   17   18 1  
    20   17   28 am 
    21   18   19 1  
    22   19   20 1  
    23   20   21 2  
    24   20   22 am 
    25   22   23 1  
    26   22   30 1  
    27   23   24 1  
    28   23   28 1  
    29   24   25 1  
    30   25   26 1  
    31   25   27 1  
    32   28   29 2  
    33   30   31 1  
    34   31   32 ar 
    35   31   40 ar 
    36   32   33 ar 
    37   33   34 ar 
    38   33   38 ar 
    39   34   35 ar 
    40   35   36 ar 
    41   36   37 ar 
    42   37   38 ar 
    43   38   39 ar 
    44   39   40 ar 
    45    3   41 1  
    46    4   42 1  
    47    4   43 1  
    48    4   44 1  
    49    5   45 1  
    50    6   46 1  
    51    6   47 1  
    52    8   48 1  
    53   10   49 1  
    54   11   50 1  
    55   12   51 1  
    56   13   52 1  
    57   15   53 1  
    58   16   54 1  
    59   18   55 1  
    60   18   56 1  
    61   19   57 1  
    62   19   58 1  
    63   23   59 1  
    64   24   60 1  
    65   24   61 1  
    66   25   62 1  
    67   26   63 1  
    68   26   64 1  
    69   26   65 1  
    70   27   66 1  
    71   27   67 1  
    72   27   68 1  
    73   30   69 1  
    74   30   70 1  
    75   32   71 1  
    76   34   72 1  
    77   35   73 1  
    78   36   74 1  
    79   37   75 1  
    80   40   76 1  
@<TRIPOS>SUBSTRUCTURE
     1 LA1         1

