### 
### Created by X-TOOL on Mon Sep 10 21:12:52 2018
### 

@<TRIPOS>MOLECULE
1xur_ligand
   42    44     1     0     0
SMALL
GAST_HUCK


@<TRIPOS>ATOM
      1 C1        -11.8390   27.3620   44.9950 C.ar      1 PB5         0.1460
      2 C2        -11.2640   27.9440   46.1050 C.ar      1 PB5         0.0307
      3 C3         -9.8910   28.0020   46.1830 C.ar      1 PB5         0.1460
      4 N6        -11.0400   26.8450   43.9760 N.ar      1 PB5        -0.2378
      5 C9         -9.2680   28.5980   47.3590 C.2       1 PB5         0.2364
      6 C11        -7.2040   28.8140   48.6930 C.3       1 PB5         0.0705
      7 C12        -7.3710   28.0130   49.9660 C.ar      1 PB5         0.0070
      8 C15       -13.2980   27.2780   44.9040 C.2       1 PB5         0.2364
      9 C21       -16.5660   23.9480   44.0130 C.ar      1 PB5         0.0145
     10 C24       -15.9670   23.6480   46.7810 C.ar      1 PB5        -0.0404
     11 C30        -8.1990   26.8560   49.9990 C.ar      1 PB5        -0.0385
     12 C31        -8.3730   26.1020   51.1730 C.ar      1 PB5        -0.0404
     13 C32        -7.7090   26.5020   52.3400 C.ar      1 PB5         0.0042
     14 C34        -6.7090   28.4050   51.1400 C.ar      1 PB5         0.0145
     15 N4         -9.0910   27.4840   45.1630 N.ar      1 PB5        -0.2378
     16 C5         -9.6630   26.9010   44.0460 C.ar      1 PB5         0.1005
     17 N10        -7.9450   28.2920   47.5220 N.am      1 PB5        -0.2697
     18 N16       -13.8020   26.3210   44.0370 N.am      1 PB5        -0.2697
     19 C17       -15.2520   26.1090   43.8640 C.3       1 PB5         0.0705
     20 C18       -15.7770   24.9150   44.6530 C.ar      1 PB5         0.0070
     21 N22       -17.0470   22.8440   44.7570 N.ar      1 PB5        -0.3043
     22 C23       -16.7560   22.6860   46.1310 C.ar      1 PB5         0.0042
     23 C25       -15.4860   24.7510   46.0390 C.ar      1 PB5        -0.0385
     24 N33        -6.8860   27.6440   52.3100 N.ar      1 PB5        -0.3043
     25 O41       -14.1120   27.9570   45.5400 O.2       1 PB5        -0.3734
     26 O42        -9.8000   29.3030   48.2140 O.2       1 PB5        -0.3734
     27 H1        -11.8807   28.3476   46.8999 H         1 PB5         0.0881
     28 H2         -6.1339   28.8317   48.4391 H         1 PB5         0.0699
     29 H3         -7.5518   29.8393   48.8872 H         1 PB5         0.0699
     30 H4        -16.8048   24.0450   42.9601 H         1 PB5         0.0766
     31 H5        -15.7305   23.5468   47.8341 H         1 PB5         0.0693
     32 H6         -8.7097   26.5475   49.0940 H         1 PB5         0.0679
     33 H7         -9.0106   25.2254   51.1751 H         1 PB5         0.0693
     34 H8         -7.8278   25.9374   53.2577 H         1 PB5         0.0767
     35 H9         -6.0708   29.2812   51.1451 H         1 PB5         0.0766
     36 H10        -9.0473   26.4999   43.2491 H         1 PB5         0.1155
     37 H11        -7.4783   27.7161   46.8508 H         1 PB5         0.1879
     38 H12       -13.1636   25.7572   43.5129 H         1 PB5         0.1879
     39 H13       -15.4570   25.9413   42.7964 H         1 PB5         0.0699
     40 H14       -15.7812   27.0123   44.2015 H         1 PB5         0.0699
     41 H15       -17.1380   21.8310   46.6771 H         1 PB5         0.0767
     42 H16       -14.8770   25.4952   46.5394 H         1 PB5         0.0679
@<TRIPOS>BOND
     1    1    2 ar 
     2    1    4 ar 
     3    8    1 1  
     4    2    3 ar 
     5    3    5 1  
     6    3   15 ar 
     7    4   16 ar 
     8    5   17 am 
     9    5   26 2  
    10    6    7 1  
    11   17    6 1  
    12    7   11 ar 
    13    7   14 ar 
    14   18    8 am 
    15    8   25 2  
    16   20    9 ar 
    17    9   21 ar 
    18   10   22 ar 
    19   23   10 ar 
    20   11   12 ar 
    21   12   13 ar 
    22   24   13 ar 
    23   14   24 ar 
    24   16   15 ar 
    25   19   18 1  
    26   20   19 1  
    27   20   23 ar 
    28   21   22 ar 
    29    2   27 1  
    30    6   28 1  
    31    6   29 1  
    32    9   30 1  
    33   10   31 1  
    34   11   32 1  
    35   12   33 1  
    36   13   34 1  
    37   14   35 1  
    38   16   36 1  
    39   17   37 1  
    40   18   38 1  
    41   19   39 1  
    42   19   40 1  
    43   22   41 1  
    44   23   42 1  
@<TRIPOS>SUBSTRUCTURE
     1 PB5         1

