### 
### Created by X-TOOL on Mon Sep 10 21:12:51 2018
### 

@<TRIPOS>MOLECULE
1xws_ligand
   58    62     1     0     0
SMALL
GAST_HUCK


@<TRIPOS>ATOM
      1 CBD       -14.9030  -36.4870    5.8420 C.3       1 BI1        -0.0433
      2 NBC       -15.8660  -36.4870    4.7470 N.4       1 BI1         0.2310
      3 CBE       -17.2180  -36.9790    4.9630 C.3       1 BI1        -0.0433
      4 CBB       -15.3890  -35.9230    3.4860 C.3       1 BI1        -0.0300
      5 CBA       -16.4520  -36.0540    2.4070 C.3       1 BI1         0.0135
      6 CAY       -15.6560  -36.0150    1.1240 C.3       1 BI1         0.0534
      7 NAH       -16.5110  -36.1470   -0.0400 N.pl3     1 BI1        -0.2739
      8 CAW       -17.4560  -37.1270   -0.1720 C.2       1 BI1         0.0225
      9 CAE       -16.4620  -35.3690   -1.1300 C.ar      1 BI1         0.0631
     10 CAF       -15.6680  -34.2780   -1.4930 C.ar      1 BI1        -0.0441
     11 CAA       -15.8460  -33.6620   -2.7160 C.ar      1 BI1        -0.0767
     12 CAB       -16.8130  -34.1320   -3.6210 C.ar      1 BI1        -0.0792
     13 CAC       -17.6160  -35.2240   -3.2780 C.ar      1 BI1        -0.0745
     14 CAD       -17.4030  -35.8500   -2.0450 C.ar      1 BI1        -0.0187
     15 CAG       -18.0360  -36.9000   -1.3980 C.2       1 BI1        -0.0201
     16 CAI       -19.0800  -37.8430   -1.9360 C.3       1 BI1         0.0943
     17 CAT       -19.1420  -38.3480   -3.3350 C.2       1 BI1         0.2164
     18 OAZ       -18.4160  -37.8970   -4.2920 O.2       1 BI1        -0.3841
     19 NAU       -20.1060  -39.2700   -3.5490 N.am      1 BI1        -0.1970
     20 CAV       -20.6570  -39.4950   -2.3480 C.2       1 BI1         0.2164
     21 OAX       -21.6020  -40.3400   -2.2080 O.2       1 BI1        -0.3841
     22 CAJ       -20.0890  -38.6740   -1.2550 C.3       1 BI1         0.0943
     23 CAK       -20.5040  -38.7500    0.1830 C.2       1 BI1        -0.0203
     24 CAM       -20.4300  -37.7310    1.1540 C.ar      1 BI1        -0.0189
     25 CAP       -20.0080  -36.3960    1.1200 C.ar      1 BI1        -0.0745
     26 CAQ       -20.0660  -35.6470    2.2900 C.ar      1 BI1        -0.0792
     27 CAR       -20.5500  -36.2460    3.4540 C.ar      1 BI1        -0.0767
     28 CAS       -20.9830  -37.5830    3.4910 C.ar      1 BI1        -0.0443
     29 CAN       -20.9090  -38.3470    2.3110 C.ar      1 BI1         0.0606
     30 NAO       -21.2560  -39.6430    2.0190 N.pl3     1 BI1        -0.2884
     31 CAL       -21.0250  -39.9310    0.7090 C.2       1 BI1         0.0197
     32 H1        -15.3647  -36.9309    6.7363 H         1 BI1         0.0777
     33 H2        -14.5976  -35.4534    6.0618 H         1 BI1         0.0777
     34 H3        -14.0203  -37.0768    5.5540 H         1 BI1         0.0777
     35 H4        -15.5795  -37.4092    4.4580 H         1 BI1         0.2028
     36 H5        -17.7910  -36.8993    4.0274 H         1 BI1         0.0777
     37 H6        -17.7064  -36.3782    5.7444 H         1 BI1         0.0777
     38 H7        -17.1789  -38.0315    5.2804 H         1 BI1         0.0777
     39 H8        -14.4833  -36.4607    3.1688 H         1 BI1         0.0815
     40 H9        -15.1514  -34.8590    3.6324 H         1 BI1         0.0815
     41 H10       -17.1649  -35.2176    2.4533 H         1 BI1         0.0343
     42 H11       -16.9959  -37.0052    2.5038 H         1 BI1         0.0343
     43 H12       -14.9302  -36.8415    1.1291 H         1 BI1         0.0597
     44 H13       -15.1197  -35.0564    1.0658 H         1 BI1         0.0597
     45 H14       -17.6968  -37.9157    0.5393 H         1 BI1         0.0806
     46 H15       -14.9084  -33.9133   -0.8110 H         1 BI1         0.0542
     47 H16       -15.2338  -32.8075   -2.9806 H         1 BI1         0.0530
     48 H17       -16.9361  -33.6487   -4.5834 H         1 BI1         0.0510
     49 H18       -18.3870  -35.5780   -3.9528 H         1 BI1         0.0540
     50 H19       -19.7642  -36.9967   -2.0960 H         1 BI1         0.0666
     51 H20       -20.3556  -39.6947   -4.4192 H         1 BI1         0.2258
     52 H21       -20.8520  -37.8911   -1.3771 H         1 BI1         0.0666
     53 H22       -19.6432  -35.9552    0.1993 H         1 BI1         0.0540
     54 H23       -19.7401  -34.6132    2.2980 H         1 BI1         0.0510
     55 H24       -20.5937  -35.6582    4.3638 H         1 BI1         0.0530
     56 H25       -21.3655  -38.0161    4.4082 H         1 BI1         0.0541
     57 H26       -21.6411  -40.3105    2.7025 H         1 BI1         0.2218
     58 H27       -21.2061  -40.8709    0.1896 H         1 BI1         0.0804
@<TRIPOS>BOND
     1    1    2 1  
     2    2    3 1  
     3    2    4 1  
     4    4    5 1  
     5    5    6 1  
     6    6    7 1  
     7    7    8 1  
     8    7    9 1  
     9    8   15 2  
    10    9   10 ar 
    11    9   14 ar 
    12   10   11 ar 
    13   11   12 ar 
    14   12   13 ar 
    15   13   14 ar 
    16   14   15 1  
    17   15   16 1  
    18   16   17 1  
    19   16   22 1  
    20   17   18 2  
    21   17   19 am 
    22   19   20 am 
    23   20   21 2  
    24   20   22 1  
    25   22   23 1  
    26   23   24 1  
    27   23   31 2  
    28   24   25 ar 
    29   24   29 ar 
    30   25   26 ar 
    31   26   27 ar 
    32   27   28 ar 
    33   28   29 ar 
    34   29   30 1  
    35   30   31 1  
    36    1   32 1  
    37    1   33 1  
    38    1   34 1  
    39    2   35 1  
    40    3   36 1  
    41    3   37 1  
    42    3   38 1  
    43    4   39 1  
    44    4   40 1  
    45    5   41 1  
    46    5   42 1  
    47    6   43 1  
    48    6   44 1  
    49    8   45 1  
    50   10   46 1  
    51   11   47 1  
    52   12   48 1  
    53   13   49 1  
    54   16   50 1  
    55   19   51 1  
    56   22   52 1  
    57   25   53 1  
    58   26   54 1  
    59   27   55 1  
    60   28   56 1  
    61   30   57 1  
    62   31   58 1  
@<TRIPOS>SUBSTRUCTURE
     1 BI1         1

