### 
### Created by X-TOOL on Mon Sep 10 21:12:52 2018
### 

@<TRIPOS>MOLECULE
1xxe_ligand
   71    71     1     0     0
SMALL
GAST_HUCK


@<TRIPOS>ATOM
      1 C3G       -10.7240    3.1650   -2.7820 C.3       1 TUX         0.1228
      2 C4G       -11.1710    1.8330   -3.3560 C.3       1 TUX         0.1143
      3 C5G       -10.9630    0.7050   -2.3520 C.3       1 TUX         0.1102
      4 C2G        -9.2980    3.0660   -2.2750 C.3       1 TUX         0.0325
      5 C1G        -9.1520    1.9050   -1.2970 C.3       1 TUX         0.0559
      6 O5G        -9.5970    0.6650   -1.8880 O.3       1 TUX        -0.3711
      7 O3G       -10.8290    4.1970   -3.7820 O.3       1 TUX        -0.2703
      8 O1A       -12.7720    4.9120   -2.7680 O.2       1 TUX        -0.3704
      9 C1A       -11.8010    5.2030   -3.4390 C.2       1 TUX         0.2341
     10 C2A       -11.6230    6.6290   -3.9360 C.3       1 TUX         0.0487
     11 C3A       -10.9370    7.4640   -2.8600 C.3       1 TUX        -0.0348
     12 C4A       -11.6710    8.7850   -2.6500 C.3       1 TUX        -0.0509
     13 C5A       -11.5000    9.7000   -3.8610 C.3       1 TUX        -0.0529
     14 C6A       -12.6740   10.6740   -3.9810 C.3       1 TUX        -0.0531
     15 C7A       -13.5280   10.3610   -5.2080 C.3       1 TUX        -0.0531
     16 C8A       -13.0920   11.2100   -6.4000 C.3       1 TUX        -0.0531
     17 C9A       -14.0600   11.0240   -7.5660 C.3       1 TUX        -0.0531
     18 CAA       -13.7390   11.9950   -8.7010 C.3       1 TUX        -0.0531
     19 CBA       -15.0210   12.6010   -9.2710 C.3       1 TUX        -0.0531
     20 CCA       -16.0420   11.5080   -9.5780 C.3       1 TUX        -0.0533
     21 CDA       -16.7790   11.8060  -10.8820 C.3       1 TUX        -0.0559
     22 CEA       -17.7950   10.7070  -11.1850 C.3       1 TUX        -0.0653
     23 CZH        -8.8780    4.3810   -1.6240 C.3       1 TUX         0.0466
     24 CYH        -7.3630    4.5070   -1.6620 C.2       1 TUX         0.1992
     25 OYH        -6.7950    4.7340   -2.7130 O.2       1 TUX        -0.3970
     26 NXH        -6.7040    4.3670   -0.5460 N.am      1 TUX        -0.1642
     27 OXH        -5.2730    4.5060   -0.5340 O.3       1 TUX        -0.2717
     28 O4G       -12.5440    1.9060   -3.7150 O.3       1 TUX        -0.3862
     29 C6G       -11.2680   -0.6490   -2.9600 C.3       1 TUX         0.0729
     30 O6G       -10.1260   -1.1870   -3.6110 O.3       1 TUX        -0.3924
     31 H1        -11.3806    3.4237   -1.9383 H         1 TUX         0.0681
     32 H2        -10.5760    1.6186   -4.2560 H         1 TUX         0.0650
     33 H3        -11.6323    0.8753   -1.4958 H         1 TUX         0.0646
     34 H4         -8.6368    2.8781   -3.1338 H         1 TUX         0.0377
     35 H5         -9.7557    2.1124   -0.4012 H         1 TUX         0.0565
     36 H6         -8.0942    1.8071   -1.0117 H         1 TUX         0.0565
     37 H7        -12.6078    7.0630   -4.1636 H         1 TUX         0.0518
     38 H8        -11.0048    6.6251   -4.8458 H         1 TUX         0.0518
     39 H9         -9.9021    7.6717   -3.1697 H         1 TUX         0.0291
     40 H10       -10.9310    6.9006   -1.9153 H         1 TUX         0.0291
     41 H11       -11.2639    9.2860   -1.7594 H         1 TUX         0.0267
     42 H12       -12.7417    8.5825   -2.4996 H         1 TUX         0.0267
     43 H13       -11.4476    9.0855   -4.7719 H         1 TUX         0.0265
     44 H14       -10.5672   10.2725   -3.7507 H         1 TUX         0.0265
     45 H15       -12.2829   11.6984   -4.0679 H         1 TUX         0.0265
     46 H16       -13.2991   10.5954   -3.0793 H         1 TUX         0.0265
     47 H17       -14.5822   10.5753   -4.9784 H         1 TUX         0.0265
     48 H18       -13.4173    9.2967   -5.4630 H         1 TUX         0.0265
     49 H19       -12.0831   10.9039   -6.7138 H         1 TUX         0.0265
     50 H20       -13.0786   12.2697   -6.1051 H         1 TUX         0.0265
     51 H21       -15.0862   11.2070   -7.2149 H         1 TUX         0.0265
     52 H22       -13.9790    9.9929   -7.9405 H         1 TUX         0.0265
     53 H23       -13.2087   11.4551   -9.4993 H         1 TUX         0.0265
     54 H24       -13.0983   12.8019   -8.3158 H         1 TUX         0.0265
     55 H25       -14.7833   13.1441  -10.1976 H         1 TUX         0.0265
     56 H26       -15.4487   13.2990   -8.5363 H         1 TUX         0.0265
     57 H27       -16.7709   11.4540   -8.7559 H         1 TUX         0.0265
     58 H28       -15.5212   10.5435   -9.6703 H         1 TUX         0.0265
     59 H29       -16.0509   11.8627  -11.7046 H         1 TUX         0.0263
     60 H30       -17.3036   12.7684  -10.7896 H         1 TUX         0.0263
     61 H31       -18.3154   10.9381  -12.1262 H         1 TUX         0.0230
     62 H32       -18.5271   10.6485  -10.3661 H         1 TUX         0.0230
     63 H33       -17.2745    9.7427  -11.2811 H         1 TUX         0.0230
     64 H34        -9.2208    4.3982   -0.5789 H         1 TUX         0.0506
     65 H35        -9.3292    5.2214   -2.1718 H         1 TUX         0.0506
     66 H36        -7.1937    4.1629    0.3017 H         1 TUX         0.2216
     67 H37        -4.9507    4.3754    0.3501 H         1 TUX         0.2490
     68 H38       -12.6696    2.6098   -4.3406 H         1 TUX         0.2100
     69 H39       -12.0805   -0.5386   -3.6932 H         1 TUX         0.0584
     70 H40       -11.5845   -1.3376   -2.1627 H         1 TUX         0.0584
     71 H41        -9.4220   -1.2881   -2.9811 H         1 TUX         0.2095
@<TRIPOS>BOND
     1    1    2 1  
     2    1    4 1  
     3    1    7 1  
     4    1   31 1  
     5    2    3 1  
     6    2   28 1  
     7    2   32 1  
     8    3    6 1  
     9    3   29 1  
    10    3   33 1  
    11    4    5 1  
    12    4   23 1  
    13    4   34 1  
    14    5    6 1  
    15    5   35 1  
    16    5   36 1  
    17    7    9 1  
    18    9    8 2  
    19    9   10 1  
    20   10   11 1  
    21   10   37 1  
    22   10   38 1  
    23   11   12 1  
    24   11   39 1  
    25   11   40 1  
    26   12   13 1  
    27   12   41 1  
    28   12   42 1  
    29   13   14 1  
    30   13   43 1  
    31   13   44 1  
    32   14   15 1  
    33   14   45 1  
    34   14   46 1  
    35   15   16 1  
    36   15   47 1  
    37   15   48 1  
    38   16   17 1  
    39   16   49 1  
    40   16   50 1  
    41   17   18 1  
    42   17   51 1  
    43   17   52 1  
    44   18   19 1  
    45   18   53 1  
    46   18   54 1  
    47   19   20 1  
    48   19   55 1  
    49   19   56 1  
    50   20   21 1  
    51   20   57 1  
    52   20   58 1  
    53   21   22 1  
    54   21   59 1  
    55   21   60 1  
    56   22   61 1  
    57   22   62 1  
    58   22   63 1  
    59   23   24 1  
    60   23   64 1  
    61   23   65 1  
    62   24   25 2  
    63   24   26 am 
    64   26   27 1  
    65   26   66 1  
    66   27   67 1  
    67   28   68 1  
    68   29   30 1  
    69   29   69 1  
    70   29   70 1  
    71   30   71 1  
@<TRIPOS>SUBSTRUCTURE
     1 TUX         1

