### 
### Created by X-TOOL on Mon Sep 10 21:12:51 2018
### 

@<TRIPOS>MOLECULE
1xzx_ligand
   35    36     1     0     0
SMALL
GAST_HUCK


@<TRIPOS>ATOM
      1 C1          6.7300   20.8490   92.9310 C.ar      1 T3         -0.0403
      2 C2          3.4730   18.2180   95.5170 C.ar      1 T3          0.1078
      3 C3          6.9610   20.5530   94.2780 C.ar      1 T3         -0.0541
      4 C4          3.1800   17.3620   96.5190 C.ar      1 T3         -0.0257
      5 C5          6.2560   19.5770   94.9000 C.ar      1 T3          0.0381
      6 C6          2.0150   17.5480   97.2700 C.ar      1 T3          0.0300
      7 C7          5.2220   18.9150   94.1360 C.ar      1 T3          0.1288
      8 C8          1.1460   18.6720   97.0820 C.ar      1 T3          0.0884
      9 C9          4.9250   19.2600   92.7670 C.ar      1 T3          0.0381
     10 C10         1.5120   19.5430   96.1290 C.ar      1 T3         -0.0376
     11 C11         5.7310   20.2430   92.2170 C.ar      1 T3         -0.0541
     12 C12         2.6570   19.3270   95.3460 C.ar      1 T3         -0.0341
     13 C13         7.5580   21.9760   92.3010 C.3       1 T3          0.0324
     14 C15         8.2250   21.6560   91.0010 C.3       1 T3          0.0365
     15 C17         9.2030   22.7600   90.7150 C.2       1 T3          0.0864
     16 I1          6.6790   18.9080   96.8980 I         1 T3         -0.0570
     17 I2          1.4370   16.2310   98.8510 I         1 T3         -0.0593
     18 I3          3.5130   18.1420   91.6440 I         1 T3         -0.0570
     19 N1          8.7620   20.3200   90.9670 N.4       1 T3          0.2340
     20 O1          0.0960   18.7990   97.8550 O.3       1 T3         -0.3376
     21 O2          4.5780   17.9420   94.7110 O.3       1 T3         -0.2645
     22 O3         10.2920   22.4520   90.0490 O.co2     1 T3         -0.5641
     23 O4          8.9880   23.9600   91.0200 O.co2     1 T3         -0.5641
     24 H1          7.7105   21.1091   94.8294 H         1 T3          0.0581
     25 H2          3.8445   16.5346   96.7403 H         1 T3          0.0555
     26 H3          0.9122   20.4301   95.9606 H         1 T3          0.0525
     27 H4          5.5656   20.5422   91.1883 H         1 T3          0.0581
     28 H5          2.9124   20.0517   94.5814 H         1 T3          0.0548
     29 H6          8.3412   22.2594   93.0195 H         1 T3          0.0481
     30 H7          6.8876   22.8317   92.1328 H         1 T3          0.0481
     31 H8          7.4573   21.6942   90.2141 H         1 T3          0.1046
     32 H9          9.1986   20.1560   90.0734 H         1 T3          0.2012
     33 H10         8.0171   19.6549   91.1041 H         1 T3          0.2012
     34 H11         9.4462   20.2141   91.6996 H         1 T3          0.2012
     35 H12        -0.6883   18.8283   97.3197 H         1 T3          0.2458
@<TRIPOS>BOND
     1    3    1 ar 
     2    1   11 ar 
     3    1   13 1  
     4    2    4 ar 
     5    2   12 ar 
     6   21    2 1  
     7    5    3 ar 
     8    4    6 ar 
     9    7    5 ar 
    10    5   16 1  
    11    6    8 ar 
    12    6   17 1  
    13    7    9 ar 
    14    7   21 1  
    15    8   10 ar 
    16    8   20 1  
    17    9   11 ar 
    18    9   18 1  
    19   10   12 ar 
    20   13   14 1  
    21   14   15 1  
    22   14   19 1  
    23   15   22 ar 
    24   15   23 ar 
    25    3   24 1  
    26    4   25 1  
    27   10   26 1  
    28   11   27 1  
    29   12   28 1  
    30   13   29 1  
    31   13   30 1  
    32   14   31 1  
    33   19   32 1  
    34   19   33 1  
    35   19   34 1  
    36   20   35 1  
@<TRIPOS>SUBSTRUCTURE
     1 T3          1

