### 
### Created by X-TOOL on Mon Sep 10 21:12:52 2018
### 

@<TRIPOS>MOLECULE
1y0x_ligand
   35    36     1     0     0
SMALL
GAST_HUCK


@<TRIPOS>ATOM
      1 C1         27.7140   38.6950   92.6870 C.ar      1 T44        -0.0403
      2 C2         28.7500   39.3010   91.9840 C.ar      1 T44        -0.0541
      3 C3         29.5620   40.2880   92.5300 C.ar      1 T44         0.0381
      4 C4         29.2880   40.7450   93.8780 C.ar      1 T44         0.1288
      5 C5         28.2040   40.0940   94.6350 C.ar      1 T44         0.0381
      6 C6         27.4940   39.0850   94.0110 C.ar      1 T44        -0.0541
      7 C7         26.8310   37.5580   92.1120 C.3       1 T44         0.0324
      8 C8         26.1690   37.7340   90.7230 C.3       1 T44         0.0365
      9 C9         25.1590   36.6510   90.4880 C.2       1 T44         0.0864
     10 C1'        31.0610   41.2960   95.2340 C.ar      1 T44         0.1107
     11 C2'        31.4830   42.2130   96.1320 C.ar      1 T44        -0.0230
     12 C3'        32.5130   41.9480   97.0040 C.ar      1 T44         0.0330
     13 C4'        33.2220   40.7340   97.0790 C.ar      1 T44         0.0996
     14 C5'        32.7390   39.7500   96.1110 C.ar      1 T44         0.0330
     15 C6'        31.6840   40.0560   95.2310 C.ar      1 T44        -0.0230
     16 N8         25.5750   39.0350   90.4710 N.4       1 T44         0.2340
     17 O4         30.0460   41.7120   94.4220 O.3       1 T44        -0.2638
     18 O4'        34.1340   40.7580   98.0320 O.3       1 T44        -0.3355
     19 O9         25.3840   35.4320   90.7890 O.co2     1 T44        -0.5641
     20 O10        24.1440   37.0300   89.8770 O.co2     1 T44        -0.5641
     21 I3         31.0050   41.2660   91.4000 I         1 T44        -0.0570
     22 I3'        33.0810   43.3760   98.3360 I         1 T44        -0.0586
     23 I5         27.7300   40.6430   96.5950 I         1 T44        -0.0570
     24 I5'        33.5010   37.8300   95.8510 I         1 T44        -0.0586
     25 H1         28.9327   38.9887   90.9621 H         1 T44         0.0581
     26 H2         26.7271   38.5698   94.5779 H         1 T44         0.0581
     27 H3         26.0188   37.3875   92.8340 H         1 T44         0.0481
     28 H4         27.4638   36.6602   92.0532 H         1 T44         0.0481
     29 H5         26.9691   37.6076   89.9788 H         1 T44         0.1046
     30 H6         30.9977   43.1817   96.1660 H         1 T44         0.0576
     31 H7         31.3481   39.3005   94.5300 H         1 T44         0.0576
     32 H8         25.1734   39.0476   89.5465 H         1 T44         0.2012
     33 H9         26.2850   39.7473   90.5386 H         1 T44         0.2012
     34 H10        24.8543   39.2131   91.1528 H         1 T44         0.2012
     35 H11        34.9885   40.5830   97.6555 H         1 T44         0.2470
@<TRIPOS>BOND
     1    2    1 ar 
     2    6    1 ar 
     3    1    7 1  
     4    3    2 ar 
     5    4    3 ar 
     6    3   21 1  
     7    4    5 ar 
     8   17    4 1  
     9    5    6 ar 
    10    5   23 1  
    11    7    8 1  
    12    8    9 1  
    13    8   16 1  
    14    9   19 ar 
    15    9   20 ar 
    16   10   11 ar 
    17   10   15 ar 
    18   10   17 1  
    19   11   12 ar 
    20   12   13 ar 
    21   12   22 1  
    22   13   14 ar 
    23   13   18 1  
    24   14   15 ar 
    25   14   24 1  
    26    2   25 1  
    27    6   26 1  
    28    7   27 1  
    29    7   28 1  
    30    8   29 1  
    31   11   30 1  
    32   15   31 1  
    33   16   32 1  
    34   16   33 1  
    35   16   34 1  
    36   18   35 1  
@<TRIPOS>SUBSTRUCTURE
     1 T44         1

