### 
### Created by X-TOOL on Mon Sep 10 21:12:52 2018
### 

@<TRIPOS>MOLECULE
1y1m_ligand
   20    20     1     0     0
SMALL
GAST_HUCK


@<TRIPOS>ATOM
      1 N           1.5890   -4.3680    0.4860 N.4       1 AC5         0.2229
      2 O           0.5990   -6.6920    1.1810 O.co2     1 AC5        -0.5422
      3 CA          1.9010   -4.7880    1.8810 C.3       1 AC5         0.0324
      4 C           1.3980   -6.2420    2.0740 C.2       1 AC5         0.0960
      5 CB1         3.4030   -4.6300    2.1750 C.3       1 AC5        -0.0017
      6 CB2         1.1950   -3.8660    2.8930 C.3       1 AC5        -0.0017
      7 OXT         1.7540   -6.9110    3.0480 O.co2     1 AC5        -0.5422
      8 CG1         3.5140   -3.5170    3.1850 C.3       1 AC5        -0.0480
      9 CG2         2.2020   -2.7670    3.1550 C.3       1 AC5        -0.0480
     10 H1          1.9088   -3.4233    0.3401 H         1 AC5         0.1999
     11 H2          0.5932   -4.4124    0.3365 H         1 AC5         0.1999
     12 H3          2.0540   -4.9840   -0.1623 H         1 AC5         0.1999
     13 H4          3.9468   -4.3673    1.2556 H         1 AC5         0.0316
     14 H5          3.8117   -5.5636    2.5888 H         1 AC5         0.0316
     15 H6          0.9607   -4.4101    3.8198 H         1 AC5         0.0316
     16 H7          0.2690   -3.4536    2.4658 H         1 AC5         0.0316
     17 H8          4.3413   -2.8435    2.9168 H         1 AC5         0.0266
     18 H9          3.6898   -3.9323    4.1883 H         1 AC5         0.0266
     19 H10         2.0066   -2.2714    4.1174 H         1 AC5         0.0266
     20 H11         2.1913   -2.0190    2.3485 H         1 AC5         0.0266
@<TRIPOS>BOND
     1    3    1 1  
     2    4    2 ar 
     3    3    4 1  
     4    3    5 1  
     5    3    6 1  
     6    4    7 ar 
     7    5    8 1  
     8    6    9 1  
     9    8    9 1  
    10    1   10 1  
    11    1   11 1  
    12    1   12 1  
    13    5   13 1  
    14    5   14 1  
    15    6   15 1  
    16    6   16 1  
    17    8   17 1  
    18    8   18 1  
    19    9   19 1  
    20    9   20 1  
@<TRIPOS>SUBSTRUCTURE
     1 AC5         1

