### 
### Created by X-TOOL on Mon Sep 10 21:12:52 2018
### 

@<TRIPOS>MOLECULE
1y20_ligand
   14    14     1     0     0
SMALL
GAST_HUCK


@<TRIPOS>ATOM
      1 C3         20.8050   33.4790    6.9700 C.3       1 1AC         0.0032
      2 C4         20.0800   33.2810    8.2730 C.3       1 1AC         0.0032
      3 C1         21.3130   32.5010    8.0020 C.3       1 1AC         0.0326
      4 C2         22.6290   32.8060    8.6750 C.2       1 1AC         0.0960
      5 O2         22.8360   34.0010    9.0280 O.co2     1 1AC        -0.5422
      6 O1         23.3420   31.8240    8.9450 O.co2     1 1AC        -0.5422
      7 N1         21.1810   31.0940    7.5520 N.4       1 1AC         0.2229
      8 H1         21.3518   34.4140    6.7782 H         1 1AC         0.0317
      9 H2         20.3644   33.1126    6.0310 H         1 1AC         0.0317
     10 H3         19.1032   32.7753    8.2854 H         1 1AC         0.0317
     11 H4         20.0907   34.0766    9.0325 H         1 1AC         0.0317
     12 H5         22.0976   30.6993    7.4100 H         1 1AC         0.1999
     13 H6         20.6650   31.0650    6.6866 H         1 1AC         0.1999
     14 H7         20.6908   30.5614    8.2535 H         1 1AC         0.1999
@<TRIPOS>BOND
     1    1    2 1  
     2    1    3 1  
     3    2    3 1  
     4    3    4 1  
     5    3    7 1  
     6    4    5 ar 
     7    4    6 ar 
     8    1    8 1  
     9    1    9 1  
    10    2   10 1  
    11    2   11 1  
    12    7   12 1  
    13    7   13 1  
    14    7   14 1  
@<TRIPOS>SUBSTRUCTURE
     1 1AC         1

