### 
### Created by X-TOOL on Mon Sep 10 21:12:52 2018
### 

@<TRIPOS>MOLECULE
1y2b_ligand
   24    24     1     0     0
SMALL
GAST_HUCK


@<TRIPOS>ATOM
      1 O7         15.6700   45.7620    9.5570 O.2       1 DEE        -0.3809
      2 C6         14.5740   45.6030   10.0890 C.2       1 DEE         0.2319
      3 O8         13.3850   45.6210    9.4050 O.3       1 DEE        -0.2844
      4 C11        13.4510   45.6730    7.9680 C.3       1 DEE         0.0720
      5 C12        12.0460   45.7730    7.4160 C.3       1 DEE        -0.0373
      6 C1         14.4040   45.6220   11.5430 C.2       1 DEE         0.0775
      7 C4         13.2490   45.7810   12.3090 C.2       1 DEE         0.0855
      8 C9         11.8200   45.9840   11.9680 C.3       1 DEE         0.0036
      9 C5         15.4360   45.4790   12.5170 C.2       1 DEE         0.0140
     10 C10        16.8870   45.2740   12.2810 C.3       1 DEE        -0.0279
     11 N2         14.9680   45.5390   13.7700 N.2       1 DEE        -0.2375
     12 N3         13.6520   45.7250   13.6140 N.pl3     1 DEE        -0.2202
     13 H1         13.9331   44.7606    7.5873 H         1 DEE         0.0608
     14 H2         14.0334   46.5527    7.6567 H         1 DEE         0.0608
     15 H3         12.0857   45.8134    6.3175 H         1 DEE         0.0255
     16 H4         11.5655   46.6853    7.7993 H         1 DEE         0.0255
     17 H5         11.4652   44.8931    7.7298 H         1 DEE         0.0255
     18 H6         11.2299   46.0626   12.8930 H         1 DEE         0.0463
     19 H7         11.4598   45.1306   11.3748 H         1 DEE         0.0463
     20 H8         11.7104   46.9093   11.3834 H         1 DEE         0.0463
     21 H9         17.4090   45.2028   13.2466 H         1 DEE         0.0382
     22 H10        17.2890   46.1230   11.7086 H         1 DEE         0.0382
     23 H11        17.0384   44.3443   11.7130 H         1 DEE         0.0382
     24 H12        13.0008   45.8177   14.4066 H         1 DEE         0.2522
@<TRIPOS>BOND
     1    2    1 2  
     2    2    3 1  
     3    2    6 1  
     4    3    4 1  
     5    4    5 1  
     6    6    7 2  
     7    6    9 1  
     8    7    8 1  
     9    7   12 1  
    10    9   10 1  
    11    9   11 2  
    12   11   12 1  
    13    4   13 1  
    14    4   14 1  
    15    5   15 1  
    16    5   16 1  
    17    5   17 1  
    18    8   18 1  
    19    8   19 1  
    20    8   20 1  
    21   10   21 1  
    22   10   22 1  
    23   10   23 1  
    24   12   24 1  
@<TRIPOS>SUBSTRUCTURE
     1 DEE         1

