### 
### Created by X-TOOL on Mon Sep 10 21:12:52 2018
### 

@<TRIPOS>MOLECULE
1y2c_ligand
   34    35     1     0     0
SMALL
GAST_HUCK


@<TRIPOS>ATOM
      1 C14        14.6490    6.2990    9.9730 C.2       1 3DE         0.2325
      2 O15        13.5220    6.0870    9.2700 O.3       1 3DE        -0.2844
      3 C16        13.5320    6.1430    7.8330 C.3       1 3DE         0.0720
      4 C17        12.1140    6.3670    7.3450 C.3       1 3DE        -0.0373
      5 C10        14.5900    6.1160   11.4350 C.2       1 3DE         0.0811
      6 C11        15.7760    6.0350   12.3110 C.2       1 3DE         0.0169
      7 N13        15.3120    5.8250   13.5150 N.2       1 3DE        -0.2212
      8 C12        17.2280    5.9230   11.9280 C.3       1 3DE        -0.0272
      9 C8         13.4890    6.0910   12.2260 C.2       1 3DE         0.1045
     10 C9         12.0490    6.2220   11.7990 C.3       1 3DE         0.0062
     11 N1         13.8870    5.9290   13.5250 N.pl3     1 3DE        -0.1615
     12 C2         13.1040    5.8140   14.6890 C.ar      1 3DE         0.1093
     13 C3         13.1990    6.7770   15.7030 C.ar      1 3DE        -0.0264
     14 C4         12.4240    6.6300   16.8640 C.ar      1 3DE        -0.0663
     15 C5         11.5790    5.5170   17.0150 C.ar      1 3DE        -0.0691
     16 C6         11.5050    4.5500   16.0080 C.ar      1 3DE        -0.0663
     17 C7         12.2750    4.6980   14.8450 C.ar      1 3DE        -0.0264
     18 O1         15.7210    6.3190    9.4340 O.2       1 3DE        -0.3807
     19 H1         13.9173    5.1955    7.4284 H         1 3DE         0.0608
     20 H2         14.1734    6.9720    7.4994 H         1 3DE         0.0608
     21 H3         12.1073    6.4119    6.2459 H         1 3DE         0.0255
     22 H4         11.7311    7.3141    7.7530 H         1 3DE         0.0255
     23 H5         11.4749    5.5375    7.6820 H         1 3DE         0.0255
     24 H6         17.8452    5.8848   12.8377 H         1 3DE         0.0386
     25 H7         17.5167    6.7968   11.3254 H         1 3DE         0.0386
     26 H8         17.3827    5.0056   11.3412 H         1 3DE         0.0386
     27 H9         11.9999    6.3413   10.7066 H         1 3DE         0.0464
     28 H10        11.6012    7.1017   12.2843 H         1 3DE         0.0464
     29 H11        11.4953    5.3186   12.0944 H         1 3DE         0.0464
     30 H12        13.8637    7.6260   15.5918 H         1 3DE         0.0582
     31 H13        12.4774    7.3776   17.6471 H         1 3DE         0.0599
     32 H14        10.9834    5.4082   17.9142 H         1 3DE         0.0554
     33 H15        10.8557    3.6900   16.1255 H         1 3DE         0.0599
     34 H16        12.2276    3.9462   14.0655 H         1 3DE         0.0582
@<TRIPOS>BOND
     1    1   18 2  
     2    1    5 1  
     3    1    2 1  
     4    2    3 1  
     5    3    4 1  
     6    5    9 2  
     7    5    6 1  
     8    6    8 1  
     9    6    7 2  
    10    7   11 1  
    11   11   12 1  
    12   11    9 1  
    13    9   10 1  
    14   12   17 ar 
    15   12   13 ar 
    16   13   14 ar 
    17   14   15 ar 
    18   15   16 ar 
    19   16   17 ar 
    20    3   19 1  
    21    3   20 1  
    22    4   21 1  
    23    4   22 1  
    24    4   23 1  
    25    8   24 1  
    26    8   25 1  
    27    8   26 1  
    28   10   27 1  
    29   10   28 1  
    30   10   29 1  
    31   13   30 1  
    32   14   31 1  
    33   15   32 1  
    34   16   33 1  
    35   17   34 1  
@<TRIPOS>SUBSTRUCTURE
     1 3DE         1

