### 
### Created by X-TOOL on Mon Sep 10 21:12:52 2018
### 

@<TRIPOS>MOLECULE
1y2d_ligand
   38    39     1     0     0
SMALL
GAST_HUCK


@<TRIPOS>ATOM
      1 O3         15.7720   46.2140    9.3150 O.2       1 4DE        -0.3809
      2 C2         14.8480   45.6950    9.9320 C.2       1 4DE         0.2320
      3 O4         13.7570   45.1000    9.3400 O.3       1 4DE        -0.2845
      4 C5         12.6740   45.8410    8.7610 C.3       1 4DE         0.0720
      5 C6         12.8870   46.0130    7.2710 C.3       1 4DE        -0.0373
      6 C1         14.8350   45.5640   11.3920 C.2       1 4DE         0.0798
      7 C7         13.7490   45.5420   12.3180 C.2       1 4DE         0.0158
      8 C8         12.2810   45.6690   12.1220 C.3       1 4DE        -0.0276
      9 N9         14.2130   45.3970   13.5570 N.2       1 4DE        -0.2234
     10 N10        15.5660   45.3090   13.5200 N.pl3     1 4DE        -0.1676
     11 C12        15.9800   45.4020   12.1910 C.2       1 4DE         0.1019
     12 C13        17.4000   45.3520   11.7480 C.3       1 4DE         0.0055
     13 C11        16.2870   45.1370   14.7540 C.ar      1 4DE         0.0990
     14 C14        16.3530   43.8370   15.2940 C.ar      1 4DE        -0.0343
     15 C15        17.0310   43.5880   16.4900 C.ar      1 4DE        -0.0368
     16 C16        17.6570   44.6330   17.1770 C.ar      1 4DE         0.0839
     17 C19        17.6000   45.9280   16.6520 C.ar      1 4DE        -0.0368
     18 C20        16.9210   46.1810   15.4480 C.ar      1 4DE        -0.0343
     19 O17        18.3460   44.4990   18.3740 O.3       1 4DE        -0.3256
     20 C18        17.5750   44.6450   19.5740 C.3       1 4DE         0.0579
     21 H1         12.6184   46.8318    9.2356 H         1 4DE         0.0608
     22 H2         11.7321   45.2991    8.9320 H         1 4DE         0.0608
     23 H3         12.0483   46.5826    6.8441 H         1 4DE         0.0255
     24 H4         12.9405   45.0244    6.7917 H         1 4DE         0.0255
     25 H5         13.8268   46.5570    7.0953 H         1 4DE         0.0255
     26 H6         11.7738   45.6001   13.0957 H         1 4DE         0.0384
     27 H7         11.9272   44.8598   11.4663 H         1 4DE         0.0384
     28 H8         12.0556   46.6411   11.6591 H         1 4DE         0.0384
     29 H9         17.4461   45.4473   10.6531 H         1 4DE         0.0462
     30 H10        17.8453   44.3931   12.0516 H         1 4DE         0.0462
     31 H11        17.9581   46.1787   12.2117 H         1 4DE         0.0462
     32 H12        15.8704   43.0177   14.7735 H         1 4DE         0.0557
     33 H13        17.0720   42.5802   16.8872 H         1 4DE         0.0527
     34 H14        18.0835   46.7432   17.1781 H         1 4DE         0.0527
     35 H15        16.8862   47.1894   15.0517 H         1 4DE         0.0557
     36 H16        18.2301   44.5180   20.4484 H         1 4DE         0.0575
     37 H17        16.7825   43.8824   19.5958 H         1 4DE         0.0575
     38 H18        17.1209   45.6466   19.5985 H         1 4DE         0.0575
@<TRIPOS>BOND
     1    1    2 2  
     2    2    3 1  
     3    2    6 1  
     4    3    4 1  
     5    4    5 1  
     6    6    7 1  
     7    6   11 2  
     8    7    8 1  
     9    7    9 2  
    10    9   10 1  
    11   10   11 1  
    12   10   13 1  
    13   11   12 1  
    14   13   14 ar 
    15   13   18 ar 
    16   14   15 ar 
    17   15   16 ar 
    18   16   17 ar 
    19   16   19 1  
    20   17   18 ar 
    21   19   20 1  
    22    4   21 1  
    23    4   22 1  
    24    5   23 1  
    25    5   24 1  
    26    5   25 1  
    27    8   26 1  
    28    8   27 1  
    29    8   28 1  
    30   12   29 1  
    31   12   30 1  
    32   12   31 1  
    33   14   32 1  
    34   15   33 1  
    35   17   34 1  
    36   18   35 1  
    37   20   36 1  
    38   20   37 1  
    39   20   38 1  
@<TRIPOS>SUBSTRUCTURE
     1 4DE         1

