### 
### Created by X-TOOL on Mon Sep 10 21:12:52 2018
### 

@<TRIPOS>MOLECULE
1y2e_ligand
   36    37     1     0     0
SMALL
GAST_HUCK


@<TRIPOS>ATOM
      1 O19        15.8030    6.2830    9.2350 O.2       1 5DE        -0.3809
      2 C15        14.7570    6.1880    9.8330 C.2       1 5DE         0.2319
      3 O16        13.5730    6.1710    9.2210 O.3       1 5DE        -0.2845
      4 C17        13.5660    6.1920    7.7790 C.3       1 5DE         0.0720
      5 C18        12.1200    6.1870    7.2560 C.3       1 5DE        -0.0373
      6 C7         14.7650    6.0150   11.3240 C.2       1 5DE         0.0795
      7 C8         15.8680    5.8750   12.1690 C.2       1 5DE         0.0156
      8 N10        15.4380    5.7210   13.4260 N.2       1 5DE        -0.2238
      9 C9         17.3540    5.8900   11.8430 C.3       1 5DE        -0.0277
     10 C5         13.6560    5.9230   12.1670 C.2       1 5DE         0.1014
     11 C6         12.1890    6.0150   11.7690 C.3       1 5DE         0.0053
     12 N4         14.1120    5.7550   13.4150 N.pl3     1 5DE        -0.1688
     13 C3         13.3590    5.5870   14.5120 C.ar      1 5DE         0.0970
     14 C2         13.0510    6.6300   15.4060 C.ar      1 5DE        -0.0372
     15 C1         12.2660    6.3540   16.5370 C.ar      1 5DE        -0.0481
     16 C11        12.8850    4.2850   14.7510 C.ar      1 5DE        -0.0372
     17 C12        12.0930    4.0190   15.8650 C.ar      1 5DE        -0.0481
     18 C13        11.7790    5.0400   16.7580 C.ar      1 5DE         0.0288
     19 N14        11.0150    4.7430   17.8250 N.pl3     1 5DE        -0.3404
     20 H1         14.0927    5.3039    7.3999 H         1 5DE         0.0608
     21 H2         14.0770    7.0999    7.4261 H         1 5DE         0.0608
     22 H3         12.1279    6.2031    6.1561 H         1 5DE         0.0255
     23 H4         11.5910    7.0752    7.6319 H         1 5DE         0.0255
     24 H5         11.6067    5.2791    7.6057 H         1 5DE         0.0255
     25 H6         17.9336    5.7497   12.7673 H         1 5DE         0.0384
     26 H7         17.6196    6.8550   11.3867 H         1 5DE         0.0384
     27 H8         17.5833    5.0762   11.1394 H         1 5DE         0.0384
     28 H9         12.1124    6.1522   10.6803 H         1 5DE         0.0461
     29 H10        11.7234    6.8706   12.2800 H         1 5DE         0.0461
     30 H11        11.6716    5.0887   12.0591 H         1 5DE         0.0461
     31 H12        13.4156    7.6344   15.2234 H         1 5DE         0.0552
     32 H13        12.0322    7.1445   17.2409 H         1 5DE         0.0501
     33 H14        13.1373    3.4846   14.0649 H         1 5DE         0.0552
     34 H15        11.7204    3.0157   16.0372 H         1 5DE         0.0501
     35 H16        10.7673    5.4788   18.5018 H         1 5DE         0.1700
     36 H17        10.6779    3.7798   17.9650 H         1 5DE         0.1700
@<TRIPOS>BOND
     1    1    2 2  
     2    2    3 1  
     3    2    6 1  
     4    3    4 1  
     5    4    5 1  
     6    6    7 1  
     7    6   10 2  
     8    7    8 2  
     9    7    9 1  
    10    8   12 1  
    11   10   11 1  
    12   10   12 1  
    13   12   13 1  
    14   13   14 ar 
    15   13   16 ar 
    16   14   15 ar 
    17   15   18 ar 
    18   16   17 ar 
    19   17   18 ar 
    20   18   19 1  
    21    4   20 1  
    22    4   21 1  
    23    5   22 1  
    24    5   23 1  
    25    5   24 1  
    26    9   25 1  
    27    9   26 1  
    28    9   27 1  
    29   11   28 1  
    30   11   29 1  
    31   11   30 1  
    32   14   31 1  
    33   15   32 1  
    34   16   33 1  
    35   17   34 1  
    36   19   35 1  
    37   19   36 1  
@<TRIPOS>SUBSTRUCTURE
     1 5DE         1

