### 
### Created by X-TOOL on Mon Sep 10 21:12:53 2018
### 

@<TRIPOS>MOLECULE
1y2h_ligand
   34    35     1     0     0
SMALL
GAST_HUCK


@<TRIPOS>ATOM
      1 O14        -0.2810   48.0130  -12.7470 O.2       1 6DE        -0.3807
      2 C13        -0.0310   48.2200  -11.5670 C.2       1 6DE         0.2325
      3 O15        -0.9720   48.2910  -10.6040 O.3       1 6DE        -0.2844
      4 C16        -2.3470   48.5440  -10.9710 C.3       1 6DE         0.0720
      5 C17        -2.9930   49.4190   -9.8730 C.3       1 6DE        -0.0373
      6 C12         1.4100   48.3990  -11.1480 C.2       1 6DE         0.0812
      7 C18         1.8400   49.0190   -9.9700 C.2       1 6DE         0.1046
      8 C19         0.9910   49.6490   -8.8620 C.3       1 6DE         0.0062
      9 C10         2.5470   47.9780  -11.8560 C.2       1 6DE         0.0169
     10 C11         2.5350   47.2530  -13.2010 C.3       1 6DE        -0.0272
     11 N9          3.7170   48.2690  -11.2450 N.2       1 6DE        -0.2211
     12 N1          3.3120   48.9690   -9.9960 N.pl3     1 6DE        -0.1608
     13 C2          4.1890   49.4370   -9.0740 C.ar      1 6DE         0.1234
     14 C3          4.5580   48.6190   -8.0200 C.ar      1 6DE         0.0748
     15 CL4         3.8450   47.0380   -7.9540 Cl        1 6DE        -0.0744
     16 C5          5.4640   49.0400   -7.0460 C.ar      1 6DE        -0.0523
     17 C6          6.0150   50.3140   -7.1380 C.ar      1 6DE        -0.0686
     18 C7          5.6560   51.1560   -8.1970 C.ar      1 6DE        -0.0661
     19 C8          4.7450   50.7180   -9.1660 C.ar      1 6DE        -0.0258
     20 H1         -2.8905   47.5913  -11.0541 H         1 6DE         0.0608
     21 H2         -2.3828   49.0719  -11.9354 H         1 6DE         0.0608
     22 H3         -4.0417   49.6221  -10.1358 H         1 6DE         0.0255
     23 H4         -2.4448   50.3692   -9.7915 H         1 6DE         0.0255
     24 H5         -2.9525   48.8885   -8.9102 H         1 6DE         0.0255
     25 H6         -0.0751   49.5387   -9.1095 H         1 6DE         0.0464
     26 H7          1.2382   50.7172   -8.7731 H         1 6DE         0.0464
     27 H8          1.2000   49.1436   -7.9076 H         1 6DE         0.0464
     28 H9          3.5687   47.0475  -13.5160 H         1 6DE         0.0386
     29 H10         2.0411   47.8849  -13.9538 H         1 6DE         0.0386
     30 H11         1.9867   46.3046  -13.1015 H         1 6DE         0.0386
     31 H12         5.7351   48.3826   -6.2279 H         1 6DE         0.0604
     32 H13         6.7219   50.6545   -6.3901 H         1 6DE         0.0555
     33 H14         6.0842   52.1494   -8.2671 H         1 6DE         0.0600
     34 H15         4.4706   51.3707   -9.9868 H         1 6DE         0.0582
@<TRIPOS>BOND
     1    1    2 2  
     2    2    3 1  
     3    2    6 1  
     4    3    4 1  
     5    4    5 1  
     6    6    7 2  
     7    6    9 1  
     8    7    8 1  
     9    7   12 1  
    10    9   10 1  
    11    9   11 2  
    12   11   12 1  
    13   12   13 1  
    14   13   14 ar 
    15   13   19 ar 
    16   14   15 1  
    17   14   16 ar 
    18   16   17 ar 
    19   17   18 ar 
    20   18   19 ar 
    21    4   20 1  
    22    4   21 1  
    23    5   22 1  
    24    5   23 1  
    25    5   24 1  
    26    8   25 1  
    27    8   26 1  
    28    8   27 1  
    29   10   28 1  
    30   10   29 1  
    31   10   30 1  
    32   16   31 1  
    33   17   32 1  
    34   18   33 1  
    35   19   34 1  
@<TRIPOS>SUBSTRUCTURE
     1 6DE         1

