### 
### Created by X-TOOL on Mon Sep 10 21:12:53 2018
### 

@<TRIPOS>MOLECULE
1y2j_ligand
   36    37     1     0     0
SMALL
GAST_HUCK


@<TRIPOS>ATOM
      1 O21        40.5100    1.5730   58.0170 O.2       1 7DE        -0.4875
      2 N19        39.4690    1.4350   58.6870 N.2       1 7DE        -0.2126
      3 O20        38.3310    1.5290   58.2130 O.2       1 7DE        -0.4875
      4 C12        39.5810    1.9410   59.9600 C.ar      1 7DE         0.0996
      5 C13        38.7710    3.0400   60.3140 C.ar      1 7DE        -0.0162
      6 C11        40.5230    1.4150   60.8710 C.ar      1 7DE         0.0364
      7 C3         40.6190    2.0070   62.1120 C.ar      1 7DE         0.2060
      8 C2         39.8070    3.0930   62.4330 C.ar      1 7DE         0.0081
      9 C1         38.9030    3.6280   61.5470 C.ar      1 7DE        -0.0386
     10 N4         41.4210    1.6080   63.1290 N.pl3     1 7DE         0.0702
     11 C5         42.7150    1.7970   63.2960 C.2       1 7DE         0.3108
     12 C6         43.6570    2.4760   62.2900 C.3       1 7DE         0.1033
     13 C7         43.0610    1.2830   64.4920 C.2       1 7DE         0.2887
     14 C8         41.8130    0.7510   65.0610 C.2       1 7DE         0.2666
     15 N10        40.9010    0.9900   64.2090 N.2       1 7DE         0.0985
     16 C9         41.5330    0.0570   66.3610 C.3       1 7DE         0.0417
     17 C14        44.3980    1.2460   65.0920 C.2       1 7DE         0.3164
     18 O18        44.4900    0.8220   66.2330 O.2       1 7DE        -0.3407
     19 O15        45.4470    1.2680   64.2470 O.3       1 7DE        -0.2736
     20 C16        46.7720    1.2960   64.8090 C.3       1 7DE         0.0730
     21 C17        47.7820    1.7950   63.7440 C.3       1 7DE        -0.0373
     22 H1         38.0412    3.4218   59.6093 H         1 7DE         0.0788
     23 H2         41.1505    0.5727   60.6030 H         1 7DE         0.0780
     24 H3         39.8917    3.5329   63.4201 H         1 7DE         0.0750
     25 H4         38.3084    4.4937   61.8156 H         1 7DE         0.0674
     26 H5         44.6785    2.4927   62.6978 H         1 7DE         0.0999
     27 H6         43.3180    3.5065   62.1081 H         1 7DE         0.0999
     28 H7         43.6491    1.9150   61.3439 H         1 7DE         0.0999
     29 H8         40.4628   -0.1898   66.4218 H         1 7DE         0.0593
     30 H9         41.8045    0.7194   67.1962 H         1 7DE         0.0593
     31 H10        42.1263   -0.8675   66.4184 H         1 7DE         0.0593
     32 H11        47.0531    0.2831   65.1329 H         1 7DE         0.0608
     33 H12        46.7878    1.9752   65.6741 H         1 7DE         0.0608
     34 H13        48.7926    1.8147   64.1779 H         1 7DE         0.0255
     35 H14        47.5024    2.8083   63.4198 H         1 7DE         0.0255
     36 H15        47.7677    1.1161   62.8786 H         1 7DE         0.0255
@<TRIPOS>BOND
     1    1    2 2  
     2    2    3 2  
     3    2    4 1  
     4    4    5 ar 
     5    4    6 ar 
     6    5    9 ar 
     7    6    7 ar 
     8    7    8 ar 
     9    7   10 1  
    10    8    9 ar 
    11   10   11 1  
    12   10   15 1  
    13   11   12 1  
    14   11   13 2  
    15   13   14 1  
    16   13   17 1  
    17   14   15 2  
    18   14   16 1  
    19   17   18 2  
    20   17   19 1  
    21   19   20 1  
    22   20   21 1  
    23    5   22 1  
    24    6   23 1  
    25    8   24 1  
    26    9   25 1  
    27   12   26 1  
    28   12   27 1  
    29   12   28 1  
    30   16   29 1  
    31   16   30 1  
    32   16   31 1  
    33   20   32 1  
    34   20   33 1  
    35   21   34 1  
    36   21   35 1  
    37   21   36 1  
@<TRIPOS>SUBSTRUCTURE
     1 7DE         1

