### 
### Created by X-TOOL on Mon Sep 10 21:12:52 2018
### 

@<TRIPOS>MOLECULE
1y2k_ligand
   36    37     1     0     0
SMALL
GAST_HUCK


@<TRIPOS>ATOM
      1 O21        10.6840   42.2670   15.7390 O.2       1 7DE        -0.4875
      2 N19        10.8910   43.1080   16.5910 N.2       1 7DE        -0.2126
      3 O20        10.5610   42.9540   17.7520 O.2       1 7DE        -0.4875
      4 C12        11.7100   44.1590   16.2920 C.ar      1 7DE         0.0996
      5 C13        11.8620   45.2270   17.1940 C.ar      1 7DE        -0.0162
      6 C11        12.4350   44.2050   15.0810 C.ar      1 7DE         0.0364
      7 C3         13.2690   45.2870   14.7800 C.ar      1 7DE         0.2060
      8 C2         13.4100   46.3370   15.6930 C.ar      1 7DE         0.0081
      9 C1         12.7020   46.3040   16.8970 C.ar      1 7DE        -0.0386
     10 N4         13.9730   45.3270   13.6190 N.pl3     1 7DE         0.0702
     11 C5         13.5230   45.4580   12.3860 C.2       1 7DE         0.3108
     12 C6         12.0530   45.6070   12.0420 C.3       1 7DE         0.1033
     13 C7         14.5740   45.4430   11.5290 C.2       1 7DE         0.2887
     14 C8         15.7490   45.2820   12.4030 C.2       1 7DE         0.2666
     15 N10        15.3140   45.2230   13.5890 N.2       1 7DE         0.0985
     16 C9         17.2140   45.1910   12.0710 C.3       1 7DE         0.0417
     17 C14        14.6100   45.5570   10.0530 C.2       1 7DE         0.3164
     18 O18        15.6900   45.6880    9.4810 O.2       1 7DE        -0.3407
     19 O15        13.4520   45.4600    9.3940 O.3       1 7DE        -0.2736
     20 C16        13.4660   45.5290    7.9480 C.3       1 7DE         0.0730
     21 C17        12.0210   45.6420    7.4140 C.3       1 7DE        -0.0373
     22 H1         11.3202   45.2149   18.1328 H         1 7DE         0.0788
     23 H2         12.3438   43.3889   14.3734 H         1 7DE         0.0780
     24 H3         14.0645   47.1713   15.4679 H         1 7DE         0.0750
     25 H4         12.8047   47.1184   17.6050 H         1 7DE         0.0674
     26 H5         11.9391   45.6991   10.9518 H         1 7DE         0.0999
     27 H6         11.6517   46.5075   12.5299 H         1 7DE         0.0999
     28 H7         11.5024   44.7225   12.3947 H         1 7DE         0.0999
     29 H8         17.7935   45.0733   12.9985 H         1 7DE         0.0593
     30 H9         17.5308   46.1093   11.5549 H         1 7DE         0.0593
     31 H10        17.3886   44.3239   11.4170 H         1 7DE         0.0593
     32 H11        13.9343   44.6194    7.5438 H         1 7DE         0.0608
     33 H12        14.0423   46.4104    7.6303 H         1 7DE         0.0608
     34 H13        12.0391   45.6940    6.3154 H         1 7DE         0.0255
     35 H14        11.5515   46.5517    7.8164 H         1 7DE         0.0255
     36 H15        11.4434   44.7608    7.7299 H         1 7DE         0.0255
@<TRIPOS>BOND
     1    1    2 2  
     2    2    4 1  
     3    2    3 2  
     4    4    6 ar 
     5    4    5 ar 
     6    5    9 ar 
     7    9    8 ar 
     8    8    7 ar 
     9    7   10 1  
    10    7    6 ar 
    11   10   15 1  
    12   10   11 1  
    13   11   13 2  
    14   11   12 1  
    15   13   17 1  
    16   13   14 1  
    17   14   16 1  
    18   14   15 2  
    19   17   19 1  
    20   17   18 2  
    21   19   20 1  
    22   20   21 1  
    23    5   22 1  
    24    6   23 1  
    25    8   24 1  
    26    9   25 1  
    27   12   26 1  
    28   12   27 1  
    29   12   28 1  
    30   16   29 1  
    31   16   30 1  
    32   16   31 1  
    33   20   32 1  
    34   20   33 1  
    35   21   34 1  
    36   21   35 1  
    37   21   36 1  
@<TRIPOS>SUBSTRUCTURE
     1 7DE         1

