### 
### Created by X-TOOL on Mon Sep 10 21:12:52 2018
### 

@<TRIPOS>MOLECULE
1y3v_ligand
   66    72     1     0     0
SMALL
GAST_HUCK


@<TRIPOS>ATOM
      1 N1         -5.0050    9.5760   19.7650 N.pl3     1 UIR        -0.2729
      2 C3         -3.7030    9.3060   19.6770 C.cat     1 UIR         0.2318
      3 C4         -3.1170    8.0720   20.1150 C.ar      1 UIR         0.0188
      4 C9         -3.8920    7.0540   20.7060 C.ar      1 UIR        -0.0632
      5 C8         -3.2920    5.8550   21.1510 C.ar      1 UIR        -0.0549
      6 C7         -1.9090    5.6490   21.0040 C.ar      1 UIR         0.0071
      7 C10        -1.1910    4.4450   21.5740 C.3       1 UIR         0.0334
      8 N11        -2.1760    3.3050   21.5640 N.4       1 UIR         0.2536
      9 C12        -2.4460    2.8260   20.1660 C.3       1 UIR        -0.0296
     10 C13        -1.5110    1.6200   19.9570 C.3       1 UIR        -0.0074
     11 C14        -0.7340    1.3720   21.2340 C.3       1 UIR        -0.0043
     12 C15        -1.4180    2.2270   22.3140 C.3       1 UIR        -0.0111
     13 C16        -0.3090    2.9280   23.1680 C.3       1 UIR         0.0523
     14 C18         0.4940    2.7300   25.7200 C.3       1 UIR        -0.0169
     15 C17        -0.6240    2.6950   24.6950 C.3       1 UIR         0.0604
     16 C42         0.2860    1.8040   26.9260 C.3       1 UIR        -0.0478
     17 C41         1.2960    1.4090   25.8160 C.3       1 UIR        -0.0478
     18 N19        -1.6440    3.6600   24.9970 N.am      1 UIR        -0.2592
     19 C20        -1.7000    4.6950   24.0870 C.2       1 UIR         0.1915
     20 O21        -2.5800    5.6260   24.1040 O.2       1 UIR        -0.3960
     21 C22        -0.6290    4.4520   23.0030 C.3       1 UIR         0.1113
     22 C23        -2.7190    3.6930   26.0810 C.3       1 UIR         0.0605
     23 C24        -2.5080    4.8160   27.1010 C.ar      1 UIR        -0.0404
     24 C25        -1.3270    4.8670   27.8580 C.ar      1 UIR        -0.0378
     25 C26        -1.2080    5.9140   28.8680 C.ar      1 UIR         0.1170
     26 O27        -0.1330    6.1430   29.7330 O.3       1 UIR        -0.2927
     27 C28        -0.5430    7.3060   30.5080 C.3       1 UIR         0.1854
     28 O29        -1.8750    7.7250   30.0780 O.3       1 UIR        -0.2956
     29 C30        -2.2380    6.8470   29.0790 C.ar      1 UIR         0.1160
     30 C31        -3.4200    6.7870   28.3330 C.ar      1 UIR        -0.0477
     31 C32        -3.5400    5.7810   27.3440 C.ar      1 UIR        -0.0782
     32 C6         -1.1200    6.6400   20.3720 C.ar      1 UIR        -0.0549
     33 C5         -1.7320    7.8220   19.9390 C.ar      1 UIR        -0.0632
     34 N2         -2.9870   10.3480   19.1140 N.pl3     1 UIR        -0.2729
     35 H1         -5.3668   10.4814   19.4330 H         1 UIR         0.3180
     36 H2         -5.6496    8.8793   20.1651 H         1 UIR         0.3180
     37 H3         -4.9610    7.1927   20.8204 H         1 UIR         0.0599
     38 H4         -3.9036    5.0867   21.6101 H         1 UIR         0.0559
     39 H5         -0.3521    4.2271   20.8967 H         1 UIR         0.1046
     40 H6         -3.0387    3.5537   22.0221 H         1 UIR         0.2056
     41 H7         -2.2199    3.6186   19.4375 H         1 UIR         0.0815
     42 H8         -3.4974    2.5202   20.0606 H         1 UIR         0.0815
     43 H9         -0.8116    1.8334   19.1352 H         1 UIR         0.0319
     44 H10        -2.1073    0.7295   19.7092 H         1 UIR         0.0319
     45 H11         0.3149    1.6792   21.1099 H         1 UIR         0.0322
     46 H12        -0.7745    0.3070   21.5062 H         1 UIR         0.0322
     47 H13        -2.0855    1.6236   22.9466 H         1 UIR         0.0857
     48 H14         0.7118    2.6378   22.8787 H         1 UIR         0.0409
     49 H15         0.9636    3.7208   25.8080 H         1 UIR         0.0323
     50 H16        -1.0613    1.6890   24.7765 H         1 UIR         0.0569
     51 H17        -0.6562    1.2470   27.0349 H         1 UIR         0.0269
     52 H18         0.6510    2.1049   27.9191 H         1 UIR         0.0269
     53 H19         2.3768    1.4331   26.0194 H         1 UIR         0.0269
     54 H20         1.0695    0.5752   25.1352 H         1 UIR         0.0269
     55 H21         0.2344    5.1240   23.1163 H         1 UIR         0.0623
     56 H22        -2.7096    2.7303   26.6131 H         1 UIR         0.0663
     57 H23        -3.6976    3.8364   25.5996 H         1 UIR         0.0663
     58 H24        -0.5287    4.1515   27.6976 H         1 UIR         0.0451
     59 H25         0.1711    8.1268   30.3455 H         1 UIR         0.0970
     60 H26        -0.5662    7.0464   31.5767 H         1 UIR         0.0970
     61 H27        -4.2238    7.4930   28.5078 H         1 UIR         0.0493
     62 H28        -4.4451    5.7389   26.7489 H         1 UIR         0.0437
     63 H29        -0.0571    6.4856   20.2255 H         1 UIR         0.0559
     64 H30        -1.1243    8.5751   19.4505 H         1 UIR         0.0599
     65 H31        -1.9679   10.2647   18.9898 H         1 UIR         0.3180
     66 H32        -3.4732   11.2068   18.8192 H         1 UIR         0.3180
@<TRIPOS>BOND
     1    1    2 ar 
     2    2    3 1  
     3    2   34 ar 
     4    3    4 ar 
     5    3   33 ar 
     6    4    5 ar 
     7    5    6 ar 
     8    6    7 1  
     9    6   32 ar 
    10    7    8 1  
    11    7   21 1  
    12    8    9 1  
    13    8   12 1  
    14    9   10 1  
    15   10   11 1  
    16   11   12 1  
    17   12   13 1  
    18   13   15 1  
    19   13   21 1  
    20   15   14 1  
    21   14   16 1  
    22   14   17 1  
    23   15   18 1  
    24   16   17 1  
    25   18   19 am 
    26   18   22 1  
    27   19   20 2  
    28   19   21 1  
    29   22   23 1  
    30   23   24 ar 
    31   23   31 ar 
    32   24   25 ar 
    33   25   26 1  
    34   25   29 ar 
    35   26   27 1  
    36   27   28 1  
    37   28   29 1  
    38   29   30 ar 
    39   30   31 ar 
    40   32   33 ar 
    41    1   35 1  
    42    1   36 1  
    43    4   37 1  
    44    5   38 1  
    45    7   39 1  
    46    8   40 1  
    47    9   41 1  
    48    9   42 1  
    49   10   43 1  
    50   10   44 1  
    51   11   45 1  
    52   11   46 1  
    53   12   47 1  
    54   13   48 1  
    55   14   49 1  
    56   15   50 1  
    57   16   51 1  
    58   16   52 1  
    59   17   53 1  
    60   17   54 1  
    61   21   55 1  
    62   22   56 1  
    63   22   57 1  
    64   24   58 1  
    65   27   59 1  
    66   27   60 1  
    67   30   61 1  
    68   31   62 1  
    69   32   63 1  
    70   33   64 1  
    71   34   65 1  
    72   34   66 1  
@<TRIPOS>SUBSTRUCTURE
     1 UIR         1

