### 
### Created by X-TOOL on Mon Sep 10 21:12:52 2018
### 

@<TRIPOS>MOLECULE
1y3w_ligand
   65    70     1     0     0
SMALL
GAST_HUCK


@<TRIPOS>ATOM
      1 N1         -5.1160    9.5300   19.7200 N.pl3     1 UIP        -0.2729
      2 C3         -3.8020    9.3080   19.6660 C.cat     1 UIP         0.2318
      3 N2         -3.0460   10.3260   19.1450 N.pl3     1 UIP        -0.2729
      4 C4         -3.2170    8.0870   20.1190 C.ar      1 UIP         0.0188
      5 C9         -3.9830    7.0630   20.6810 C.ar      1 UIP        -0.0632
      6 C8         -3.3710    5.8710   21.0980 C.ar      1 UIP        -0.0549
      7 C7         -1.9900    5.6930   21.0140 C.ar      1 UIP         0.0071
      8 C6         -1.2150    6.7270   20.4490 C.ar      1 UIP        -0.0549
      9 C5         -1.8260    7.8970   20.0300 C.ar      1 UIP        -0.0632
     10 C10        -1.2970    4.4660   21.5280 C.3       1 UIP         0.0334
     11 N11        -2.1500    3.2380   21.4310 N.4       1 UIP         0.2536
     12 C12        -2.3340    2.7210   20.0380 C.3       1 UIP        -0.0296
     13 C13        -1.4570    1.4490   19.9320 C.3       1 UIP        -0.0074
     14 C14        -0.4980    1.5180   21.0940 C.3       1 UIP        -0.0043
     15 C15        -1.3530    2.1930   22.1920 C.3       1 UIP        -0.0111
     16 C16        -0.3770    2.9470   23.1420 C.3       1 UIP         0.0521
     17 C17        -0.7130    2.7060   24.6490 C.3       1 UIP         0.0573
     18 N19        -1.6930    3.7270   24.9450 N.am      1 UIP        -0.2595
     19 C20        -1.6720    4.7810   24.0690 C.2       1 UIP         0.1915
     20 O21        -2.5550    5.6860   24.0290 O.2       1 UIP        -0.3960
     21 C22        -0.6880    4.4480   22.9320 C.3       1 UIP         0.1113
     22 C23        -2.6350    3.8600   26.1000 C.3       1 UIP         0.0605
     23 C24        -2.0470    4.5110   27.3460 C.ar      1 UIP        -0.0404
     24 C32        -1.1700    3.7830   28.2160 C.ar      1 UIP        -0.0782
     25 C31        -0.6730    4.3370   29.4160 C.ar      1 UIP        -0.0477
     26 C30        -1.0830    5.6500   29.7000 C.ar      1 UIP         0.1160
     27 O29        -0.7440    6.4240   30.7870 O.3       1 UIP        -0.2956
     28 C28        -1.4440    7.6970   30.5940 C.3       1 UIP         0.1854
     29 O27        -2.2090    7.6600   29.3620 O.3       1 UIP        -0.2927
     30 C26        -1.9430    6.3810   28.8580 C.ar      1 UIP         0.1170
     31 C25        -2.4420    5.8230   27.6640 C.ar      1 UIP        -0.0378
     32 C18         0.5200    2.7320   25.5850 C.3       1 UIP        -0.0317
     33 C42         1.3180    1.4360   25.5760 C.3       1 UIP        -0.0632
     34 H1         -5.7450    8.8083   20.0999 H         1 UIP         0.3180
     35 H2         -5.5017   10.4232   19.3818 H         1 UIP         0.3180
     36 H3         -2.0237   10.2234   19.0730 H         1 UIP         0.3180
     37 H4         -3.5003   11.1934   18.8256 H         1 UIP         0.3180
     38 H5         -5.0535    7.1895   20.7954 H         1 UIP         0.0599
     39 H6         -3.9852    5.0705   21.4943 H         1 UIP         0.0559
     40 H7         -0.1430    6.6061   20.3429 H         1 UIP         0.0559
     41 H8         -1.2129    8.6916   19.6204 H         1 UIP         0.0599
     42 H9         -0.4504    4.3257   20.8398 H         1 UIP         0.1046
     43 H10        -3.0506    3.4033   21.8525 H         1 UIP         0.2056
     44 H11        -2.0058    3.4730   19.3053 H         1 UIP         0.0815
     45 H12        -3.3905    2.4720   19.8597 H         1 UIP         0.0815
     46 H13        -0.9062    1.4409   18.9799 H         1 UIP         0.0319
     47 H14        -2.0808    0.5458   20.0025 H         1 UIP         0.0319
     48 H15         0.3840    2.1268   20.8463 H         1 UIP         0.0322
     49 H16        -0.1748    0.5131   21.4032 H         1 UIP         0.0322
     50 H17        -1.9915    1.4809   22.7354 H         1 UIP         0.0857
     51 H18         0.6694    2.6919   22.9186 H         1 UIP         0.0409
     52 H19        -1.1801    1.7162   24.7586 H         1 UIP         0.0566
     53 H20         0.2030    5.0908   22.9851 H         1 UIP         0.0623
     54 H21        -2.9817    2.8527   26.3740 H         1 UIP         0.0663
     55 H22        -3.4922    4.4662   25.7718 H         1 UIP         0.0663
     56 H23        -0.8792    2.7749   27.9437 H         1 UIP         0.0437
     57 H24        -0.0159    3.7834   30.0769 H         1 UIP         0.0493
     58 H25        -0.7083    8.5131   30.5417 H         1 UIP         0.0970
     59 H26        -2.1247    7.8706   31.4405 H         1 UIP         0.0970
     60 H27        -3.1051    6.3837   27.0152 H         1 UIP         0.0451
     61 H28         0.1734    2.9200   26.6119 H         1 UIP         0.0285
     62 H29         1.1820    3.5504   25.2658 H         1 UIP         0.0285
     63 H30         2.1742    1.5279   26.2605 H         1 UIP         0.0230
     64 H31         1.6826    1.2369   24.5575 H         1 UIP         0.0230
     65 H32         0.6740    0.6066   25.9036 H         1 UIP         0.0230
@<TRIPOS>BOND
     1    1    2 ar 
     2    2    3 ar 
     3    2    4 1  
     4    4    5 ar 
     5    4    9 ar 
     6    5    6 ar 
     7    6    7 ar 
     8    7    8 ar 
     9    7   10 1  
    10    8    9 ar 
    11   10   11 1  
    12   10   21 1  
    13   11   12 1  
    14   11   15 1  
    15   12   13 1  
    16   13   14 1  
    17   14   15 1  
    18   15   16 1  
    19   16   17 1  
    20   16   21 1  
    21   17   18 1  
    22   17   32 1  
    23   18   19 am 
    24   18   22 1  
    25   19   20 2  
    26   19   21 1  
    27   22   23 1  
    28   23   24 ar 
    29   23   31 ar 
    30   24   25 ar 
    31   25   26 ar 
    32   26   27 1  
    33   26   30 ar 
    34   27   28 1  
    35   28   29 1  
    36   29   30 1  
    37   30   31 ar 
    38   32   33 1  
    39    1   34 1  
    40    1   35 1  
    41    3   36 1  
    42    3   37 1  
    43    5   38 1  
    44    6   39 1  
    45    8   40 1  
    46    9   41 1  
    47   10   42 1  
    48   11   43 1  
    49   12   44 1  
    50   12   45 1  
    51   13   46 1  
    52   13   47 1  
    53   14   48 1  
    54   14   49 1  
    55   15   50 1  
    56   16   51 1  
    57   17   52 1  
    58   21   53 1  
    59   22   54 1  
    60   22   55 1  
    61   24   56 1  
    62   25   57 1  
    63   28   58 1  
    64   28   59 1  
    65   31   60 1  
    66   32   61 1  
    67   32   62 1  
    68   33   63 1  
    69   33   64 1  
    70   33   65 1  
@<TRIPOS>SUBSTRUCTURE
     1 UIP         1

