### 
### Created by X-TOOL on Mon Sep 10 21:12:52 2018
### 

@<TRIPOS>MOLECULE
1y3x_ligand
   67    71     1     0     0
SMALL
GAST_HUCK


@<TRIPOS>ATOM
      1 N1         -5.0170    9.5770   19.8370 N.pl3     1 UIB        -0.2729
      2 C3         -3.7270    9.3500   19.6500 C.cat     1 UIB         0.2318
      3 N2         -3.0410   10.3560   19.0290 N.pl3     1 UIB        -0.2729
      4 C4         -3.1370    8.1210   20.0830 C.ar      1 UIB         0.0188
      5 C5         -1.7680    7.8570   19.8580 C.ar      1 UIB        -0.0632
      6 C6         -1.2160    6.6560   20.2930 C.ar      1 UIB        -0.0549
      7 C7         -2.0090    5.6880   20.9520 C.ar      1 UIB         0.0071
      8 C10        -1.3370    4.4500   21.4840 C.3       1 UIB         0.0334
      9 C22        -0.7630    4.4420   22.9150 C.3       1 UIB         0.1116
     10 C16        -0.4360    2.9350   23.1290 C.3       1 UIB         0.0544
     11 C15        -1.4120    2.2010   22.1670 C.3       1 UIB        -0.0064
     12 C13        -2.1330    1.1340   23.0160 C.3       1 UIB        -0.0184
     13 C14        -0.5110    1.5400   21.1020 C.3       1 UIB        -0.0184
     14 N11        -2.2270    3.2530   21.4180 N.4       1 UIB         0.2532
     15 C12        -2.5370    2.8520   20.0400 C.3       1 UIB        -0.0407
     16 C17        -0.7490    2.7330   24.6450 C.3       1 UIB         0.0576
     17 N19        -1.8100    3.6930   24.9060 N.am      1 UIB        -0.2595
     18 C23        -2.7820    3.6560   26.0570 C.3       1 UIB         0.0605
     19 C24        -2.5730    4.7960   27.0540 C.ar      1 UIB        -0.0404
     20 C32        -3.5640    5.8110   27.2260 C.ar      1 UIB        -0.0782
     21 C31        -3.4700    6.8050   28.2200 C.ar      1 UIB        -0.0477
     22 C30        -2.3330    6.7840   29.0380 C.ar      1 UIB         0.1160
     23 C26        -1.3350    5.8040   28.9060 C.ar      1 UIB         0.1170
     24 C25        -1.4270    4.8030   27.9240 C.ar      1 UIB        -0.0378
     25 O27        -0.3070    5.9780   29.8440 O.3       1 UIB        -0.2927
     26 C28        -0.7300    7.1530   30.5830 C.3       1 UIB         0.1854
     27 O29        -2.0080    7.6340   30.0670 O.3       1 UIB        -0.2956
     28 C20        -1.8490    4.7090   23.9840 C.2       1 UIB         0.1915
     29 O21        -2.6300    5.6990   24.0180 O.2       1 UIB        -0.3960
     30 C18         0.4760    2.8910   25.5700 C.3       1 UIB        -0.0317
     31 C41         1.2450    1.5920   25.6870 C.3       1 UIB        -0.0632
     32 C8         -3.3580    5.9540   21.1870 C.ar      1 UIB        -0.0549
     33 C9         -3.9250    7.1760   20.7470 C.ar      1 UIB        -0.0632
     34 H1         -5.6033    8.8669   20.2984 H         1 UIB         0.3180
     35 H2         -5.4350   10.4638   19.5211 H         1 UIB         0.3180
     36 H3         -2.0322   10.2555   18.8471 H         1 UIB         0.3180
     37 H4         -3.5329   11.2146   18.7429 H         1 UIB         0.3180
     38 H5         -1.1496    8.5871   19.3484 H         1 UIB         0.0599
     39 H6         -0.1634    6.4596   20.1244 H         1 UIB         0.0559
     40 H7         -0.4861    4.2761   20.8089 H         1 UIB         0.1046
     41 H8          0.1013    5.1139   23.0227 H         1 UIB         0.0623
     42 H9          0.6088    2.6774   22.9008 H         1 UIB         0.0412
     43 H10        -2.8414    0.5792   22.3832 H         1 UIB         0.0287
     44 H11        -2.6795    1.6247   23.8349 H         1 UIB         0.0287
     45 H12        -1.3924    0.4371   23.4353 H         1 UIB         0.0287
     46 H13        -0.0090    2.3202   20.5110 H         1 UIB         0.0287
     47 H14        -1.1263    0.9156   20.4375 H         1 UIB         0.0287
     48 H15         0.2444    0.9133   21.5985 H         1 UIB         0.0287
     49 H16        -3.0943    3.4334   21.8988 H         1 UIB         0.2056
     50 H17        -3.1228    3.6441   19.5506 H         1 UIB         0.0778
     51 H18        -3.1198    1.9192   20.0518 H         1 UIB         0.0778
     52 H19        -1.6007    2.6925   19.4851 H         1 UIB         0.0778
     53 H20        -1.1389    1.7158   24.7978 H         1 UIB         0.0566
     54 H21        -2.6605    2.7001   26.5875 H         1 UIB         0.0663
     55 H22        -3.8036    3.7251   25.6551 H         1 UIB         0.0663
     56 H23        -4.4230    5.8164   26.5648 H         1 UIB         0.0437
     57 H24        -4.2439    7.5535   28.3463 H         1 UIB         0.0493
     58 H25        -0.6514    4.0524   27.8241 H         1 UIB         0.0451
     59 H26         0.0272    7.9435   30.4749 H         1 UIB         0.0970
     60 H27        -0.8407    6.8942   31.6464 H         1 UIB         0.0970
     61 H28         0.1337    3.1965   26.5697 H         1 UIB         0.0285
     62 H29         1.1398    3.6649   25.1573 H         1 UIB         0.0285
     63 H30         2.1100    1.7365   26.3511 H         1 UIB         0.0230
     64 H31         1.5950    1.2821   24.6913 H         1 UIB         0.0230
     65 H32         0.5888    0.8137   26.1037 H         1 UIB         0.0230
     66 H33        -3.9720    5.2267   21.7057 H         1 UIB         0.0559
     67 H34        -4.9747    7.3790   20.9261 H         1 UIB         0.0599
@<TRIPOS>BOND
     1    1    2 ar 
     2    2    3 ar 
     3    2    4 1  
     4    4    5 ar 
     5    4   33 ar 
     6    5    6 ar 
     7    6    7 ar 
     8    7    8 1  
     9    7   32 ar 
    10    8    9 1  
    11    8   14 1  
    12    9   10 1  
    13    9   28 1  
    14   10   11 1  
    15   10   16 1  
    16   11   12 1  
    17   11   13 1  
    18   11   14 1  
    19   14   15 1  
    20   16   17 1  
    21   16   30 1  
    22   17   18 1  
    23   17   28 am 
    24   18   19 1  
    25   19   20 ar 
    26   19   24 ar 
    27   20   21 ar 
    28   21   22 ar 
    29   22   23 ar 
    30   22   27 1  
    31   23   24 ar 
    32   23   25 1  
    33   25   26 1  
    34   26   27 1  
    35   28   29 2  
    36   30   31 1  
    37   32   33 ar 
    38    1   34 1  
    39    1   35 1  
    40    3   36 1  
    41    3   37 1  
    42    5   38 1  
    43    6   39 1  
    44    8   40 1  
    45    9   41 1  
    46   10   42 1  
    47   12   43 1  
    48   12   44 1  
    49   12   45 1  
    50   13   46 1  
    51   13   47 1  
    52   13   48 1  
    53   14   49 1  
    54   15   50 1  
    55   15   51 1  
    56   15   52 1  
    57   16   53 1  
    58   18   54 1  
    59   18   55 1  
    60   20   56 1  
    61   21   57 1  
    62   24   58 1  
    63   26   59 1  
    64   26   60 1  
    65   30   61 1  
    66   30   62 1  
    67   31   63 1  
    68   31   64 1  
    69   31   65 1  
    70   32   66 1  
    71   33   67 1  
@<TRIPOS>SUBSTRUCTURE
     1 UIB         1

