### 
### Created by X-TOOL on Mon Sep 10 21:12:52 2018
### 

@<TRIPOS>MOLECULE
1y3y_ligand
   46    49     1     0     0
SMALL
GAST_HUCK


@<TRIPOS>ATOM
      1 N1         46.7820   18.5210   54.8030 N.pl3     1 UIR        -0.2729
      2 C3         45.9170   18.3890   53.8160 C.cat     1 UIR         0.2318
      3 C4         45.4140   19.4450   53.0080 C.ar      1 UIR         0.0188
      4 C9         45.8000   20.7750   53.1630 C.ar      1 UIR        -0.0632
      5 C8         45.2670   21.7530   52.3080 C.ar      1 UIR        -0.0549
      6 C7         44.3600   21.3990   51.3070 C.ar      1 UIR         0.0071
      7 C10        43.7650   22.4440   50.3990 C.3       1 UIR         0.0334
      8 N11        44.7350   23.5840   50.1970 N.4       1 UIR         0.2536
      9 C12        45.8270   23.2350   49.2340 C.3       1 UIR        -0.0296
     10 C13        45.3040   23.6120   47.8340 C.3       1 UIR        -0.0074
     11 C14        43.9870   24.3060   48.0080 C.3       1 UIR        -0.0043
     12 C15        43.8670   24.6200   49.5100 C.3       1 UIR        -0.0114
     13 C16        42.3910   24.3430   49.9370 C.3       1 UIR         0.0491
     14 C17        41.8250   25.4680   50.8640 C.3       1 UIR         0.0442
     15 N19        42.3560   25.1290   52.1740 N.am      1 UIR        -0.2751
     16 C20        42.6810   23.7970   52.2790 C.2       1 UIR         0.1893
     17 O21        43.1490   23.2690   53.3220 O.2       1 UIR        -0.3962
     18 C22        42.4790   23.1340   50.9000 C.3       1 UIR         0.1109
     19 C23        41.8670   25.8700   53.3930 C.3       1 UIR         0.0226
     20 C6         43.9760   20.0560   51.1520 C.ar      1 UIR        -0.0549
     21 C5         44.5070   19.0900   51.9830 C.ar      1 UIR        -0.0632
     22 N2         45.4850   17.1240   53.5910 N.pl3     1 UIR        -0.2729
     23 H1         47.0884   17.6930   55.3334 H         1 UIR         0.3180
     24 H2         47.1510   19.4521   55.0433 H         1 UIR         0.3180
     25 H3         46.5060   21.0523   53.9374 H         1 UIR         0.0599
     26 H4         45.5615   22.7896   52.4258 H         1 UIR         0.0559
     27 H5         43.5516   21.9594   49.4348 H         1 UIR         0.1046
     28 H6         45.1173   23.9087   51.0713 H         1 UIR         0.2056
     29 H7         46.0472   22.1583   49.2813 H         1 UIR         0.0815
     30 H8         46.7377   23.8062   49.4671 H         1 UIR         0.0815
     31 H9         45.1711   22.7042   47.2273 H         1 UIR         0.0319
     32 H10        46.0183   24.2844   47.3363 H         1 UIR         0.0319
     33 H11        43.1642   23.6499   47.6880 H         1 UIR         0.0322
     34 H12        43.9644   25.2356   47.4204 H         1 UIR         0.0322
     35 H13        44.1752   25.6489   49.7472 H         1 UIR         0.0856
     36 H14        41.7452   24.1641   49.0647 H         1 UIR         0.0406
     37 H15        40.7251   25.4555   50.8706 H         1 UIR         0.0528
     38 H16        42.1785   26.4583   50.5410 H         1 UIR         0.0528
     39 H17        41.6038   22.4680   50.8802 H         1 UIR         0.0623
     40 H18        42.3761   25.4811   54.2872 H         1 UIR         0.0486
     41 H19        40.7814   25.7272   53.4979 H         1 UIR         0.0486
     42 H20        42.0869   26.9422   53.2831 H         1 UIR         0.0486
     43 H21        43.2648   19.7794   50.3821 H         1 UIR         0.0559
     44 H22        44.2265   18.0516   51.8487 H         1 UIR         0.0599
     45 H23        44.8082   16.9373   52.8374 H         1 UIR         0.3180
     46 H24        45.8336   16.3495   54.1737 H         1 UIR         0.3180
@<TRIPOS>BOND
     1    1    2 ar 
     2    2    3 1  
     3    2   22 ar 
     4    3    4 ar 
     5    3   21 ar 
     6    4    5 ar 
     7    5    6 ar 
     8    6    7 1  
     9    6   20 ar 
    10    7    8 1  
    11    7   18 1  
    12    8    9 1  
    13    8   12 1  
    14    9   10 1  
    15   10   11 1  
    16   11   12 1  
    17   12   13 1  
    18   13   14 1  
    19   13   18 1  
    20   14   15 1  
    21   15   16 am 
    22   15   19 1  
    23   16   17 2  
    24   16   18 1  
    25   20   21 ar 
    26    1   23 1  
    27    1   24 1  
    28    4   25 1  
    29    5   26 1  
    30    7   27 1  
    31    8   28 1  
    32    9   29 1  
    33    9   30 1  
    34   10   31 1  
    35   10   32 1  
    36   11   33 1  
    37   11   34 1  
    38   12   35 1  
    39   13   36 1  
    40   14   37 1  
    41   14   38 1  
    42   18   39 1  
    43   19   40 1  
    44   19   41 1  
    45   19   42 1  
    46   20   43 1  
    47   21   44 1  
    48   22   45 1  
    49   22   46 1  
@<TRIPOS>SUBSTRUCTURE
     1 UIR         1

