### 
### Created by X-TOOL on Mon Sep 10 21:12:52 2018
### 

@<TRIPOS>MOLECULE
1y4z_ligand
   13    13     1     0     0
SMALL
GAST_HUCK


@<TRIPOS>ATOM
      1 O1       -149.6340    4.3930  -10.3700 O.3       1 PCI        -0.3311
      2 C1       -150.6070    5.3880  -10.2230 C.ar      1 PCI         0.1175
      3 C2       -151.2130    5.5430   -8.9180 C.ar      1 PCI         0.0828
      4 CL1      -150.7720    4.6600   -7.8710 Cl        1 PCI        -0.0779
      5 C3       -152.2480    6.5980   -8.7160 C.ar      1 PCI         0.0604
      6 CL2      -152.8580    6.7720   -7.4240 Cl        1 PCI        -0.0719
      7 C4       -152.6400    7.4720   -9.8790 C.ar      1 PCI         0.0573
      8 CL3      -153.6310    8.4940   -9.7000 Cl        1 PCI        -0.0795
      9 C5       -151.9990    7.2820  -11.2240 C.ar      1 PCI         0.0604
     10 CL4      -152.3670    8.1090  -12.3500 Cl        1 PCI        -0.0719
     11 C6       -150.9720    6.2300  -11.3820 C.ar      1 PCI         0.0828
     12 CL5      -150.3140    5.9970  -12.6230 Cl        1 PCI        -0.0779
     13 H1       -149.3161    4.3923  -11.2652 H         1 PCI         0.2491
@<TRIPOS>BOND
     1    1    2 1  
     2    2    3 ar 
     3    2   11 ar 
     4    3    4 1  
     5    3    5 ar 
     6    5    6 1  
     7    5    7 ar 
     8    7    8 1  
     9    7    9 ar 
    10    9   10 1  
    11    9   11 ar 
    12   11   12 1  
    13    1   13 1  
@<TRIPOS>SUBSTRUCTURE
     1 PCI         1

