### 
### Created by X-TOOL on Mon Sep 10 21:12:52 2018
### 

@<TRIPOS>MOLECULE
1y57_ligand
   67    71     1     0     0
SMALL
GAST_HUCK


@<TRIPOS>ATOM
      1 O16        22.0730   35.1300   38.6680 O.2       1 MPZ        -0.3761
      2 C15        20.9950   35.3360   39.2450 C.2       1 MPZ         0.2272
      3 C14        20.2240   36.5780   38.9100 C.ar      1 MPZ         0.0489
      4 C13        20.7990   37.4960   38.0020 C.ar      1 MPZ        -0.0479
      5 C12        20.1570   38.7040   37.6790 C.ar      1 MPZ        -0.0494
      6 C11        18.9810   36.9540   39.5290 C.ar      1 MPZ        -0.0479
      7 C10        18.3360   38.1650   39.1950 C.ar      1 MPZ        -0.0494
      8 C09        18.9200   39.0550   38.2640 C.ar      1 MPZ         0.0061
      9 C08        18.2320   40.3620   37.8870 C.3       1 MPZ         0.0045
     10 N07        18.3290   40.5980   36.4350 N.4       1 MPZ         0.2553
     11 C06        17.8550   39.4450   35.6280 C.3       1 MPZ         0.0110
     12 C05        18.1720   39.6900   34.1490 C.3       1 MPZ         0.0092
     13 C04        17.6620   41.8550   36.0030 C.3       1 MPZ         0.0110
     14 C03        17.9250   42.1120   34.5100 C.3       1 MPZ         0.0092
     15 NP2        17.5460   40.9440   33.6630 N.4       1 MPZ         0.2405
     16 C01        17.8660   41.1570   32.2290 C.3       1 MPZ        -0.0427
     17 N17        20.4280   34.5480   40.1960 N.am      1 MPZ        -0.2367
     18 C18        20.9690   33.4100   40.8000 C.ar      1 MPZ         0.0559
     19 C19        22.3270   33.0360   40.9050 C.ar      1 MPZ        -0.0526
     20 C20        22.6940   31.8920   41.6330 C.ar      1 MPZ        -0.0844
     21 C21        21.7040   31.1370   42.2990 C.ar      1 MPZ        -0.0534
     22 C23        20.3450   31.5220   42.2140 C.ar      1 MPZ         0.0515
     23 C22        20.0000   32.6560   41.4790 C.ar      1 MPZ        -0.0192
     24 N24        19.4430   30.7210   42.8950 N.pl3     1 MPZ        -0.2448
     25 C25        18.0710   31.0040   43.0680 C.ar      1 MPZ         0.2108
     26 N26        17.4550   30.1080   43.8240 N.ar      1 MPZ        -0.2511
     27 C27        16.1240   30.2340   44.0800 C.ar      1 MPZ         0.0149
     28 C28        15.4140   31.2760   43.5880 C.ar      1 MPZ        -0.0151
     29 C30        16.0670   32.1800   42.8390 C.ar      1 MPZ         0.0624
     30 N29        17.3940   32.0500   42.5690 N.ar      1 MPZ        -0.2450
     31 C31        15.3830   33.3380   42.2130 C.ar      1 MPZ         0.0316
     32 C32        15.9950   33.9830   41.1340 C.ar      1 MPZ        -0.0291
     33 C36        15.3630   35.0670   40.5210 C.ar      1 MPZ        -0.0301
     34 C35        14.1280   35.4790   40.9920 C.ar      1 MPZ         0.0142
     35 N34        13.5080   34.8720   42.0230 N.ar      1 MPZ        -0.2920
     36 C33        14.1140   33.8210   42.6190 C.ar      1 MPZ         0.0248
     37 H1         21.7544   37.2637   37.5455 H         1 MPZ         0.0652
     38 H2         20.6197   39.3787   36.9679 H         1 MPZ         0.0572
     39 H3         18.5318   36.2964   40.2644 H         1 MPZ         0.0652
     40 H4         17.3868   38.4141   39.6554 H         1 MPZ         0.0572
     41 H5         18.7158   41.1928   38.4216 H         1 MPZ         0.0991
     42 H6         17.1716   40.3088   38.1747 H         1 MPZ         0.0991
     43 H7         19.3103   40.7081   36.2328 H         1 MPZ         0.2053
     44 H8         16.7685   39.3304   35.7557 H         1 MPZ         0.0868
     45 H9         18.3624   38.5289   35.9645 H         1 MPZ         0.0868
     46 H10        17.7898   38.8459   33.5562 H         1 MPZ         0.0868
     47 H11        19.2624   39.7622   34.0236 H         1 MPZ         0.0868
     48 H12        18.0572   42.6963   36.5912 H         1 MPZ         0.0868
     49 H13        16.5784   41.7672   36.1708 H         1 MPZ         0.0868
     50 H14        18.9961   42.3191   34.3693 H         1 MPZ         0.0868
     51 H15        17.3376   42.9859   34.1919 H         1 MPZ         0.0868
     52 H16        16.5467   40.8344   33.7366 H         1 MPZ         0.2035
     53 H17        17.5678   40.2698   31.6511 H         1 MPZ         0.0778
     54 H18        18.9476   41.3221   32.1152 H         1 MPZ         0.0778
     55 H19        17.3197   42.0368   31.8581 H         1 MPZ         0.0778
     56 H20        19.5135   34.8147   40.5002 H         1 MPZ         0.2248
     57 H21        23.0901   33.6349   40.4212 H         1 MPZ         0.0412
     58 H22        23.7338   31.5898   41.6833 H         1 MPZ         0.0550
     59 H23        21.9849   30.2628   42.8752 H         1 MPZ         0.0413
     60 H24        18.9610   32.9614   41.4313 H         1 MPZ         0.0413
     61 H25        19.8024   29.8487   43.3084 H         1 MPZ         0.2175
     62 H26        15.6248   29.4879   44.6876 H         1 MPZ         0.0894
     63 H27        14.3541   31.3776   43.7915 H         1 MPZ         0.0678
     64 H28        16.9589   33.6421   40.7737 H         1 MPZ         0.0773
     65 H29        15.8326   35.5784   39.6885 H         1 MPZ         0.0718
     66 H30        13.6416   36.3214   40.5135 H         1 MPZ         0.0847
     67 H31        13.6087   33.3274   43.4412 H         1 MPZ         0.0864
@<TRIPOS>BOND
     1    1    2 2  
     2    2    3 1  
     3    2   17 am 
     4    3    4 ar 
     5    3    6 ar 
     6    4    5 ar 
     7    5    8 ar 
     8    6    7 ar 
     9    7    8 ar 
    10    8    9 1  
    11    9   10 1  
    12   10   11 1  
    13   10   13 1  
    14   11   12 1  
    15   12   15 1  
    16   13   14 1  
    17   14   15 1  
    18   15   16 1  
    19   17   18 1  
    20   18   19 ar 
    21   18   23 ar 
    22   19   20 ar 
    23   20   21 ar 
    24   21   22 ar 
    25   22   23 ar 
    26   22   24 1  
    27   24   25 1  
    28   25   26 ar 
    29   25   30 ar 
    30   26   27 ar 
    31   27   28 ar 
    32   28   29 ar 
    33   29   30 ar 
    34   29   31 1  
    35   31   32 ar 
    36   31   36 ar 
    37   32   33 ar 
    38   33   34 ar 
    39   34   35 ar 
    40   35   36 ar 
    41    4   37 1  
    42    5   38 1  
    43    6   39 1  
    44    7   40 1  
    45    9   41 1  
    46    9   42 1  
    47   10   43 1  
    48   11   44 1  
    49   11   45 1  
    50   12   46 1  
    51   12   47 1  
    52   13   48 1  
    53   13   49 1  
    54   14   50 1  
    55   14   51 1  
    56   15   52 1  
    57   16   53 1  
    58   16   54 1  
    59   16   55 1  
    60   17   56 1  
    61   19   57 1  
    62   20   58 1  
    63   21   59 1  
    64   23   60 1  
    65   24   61 1  
    66   27   62 1  
    67   28   63 1  
    68   32   64 1  
    69   33   65 1  
    70   34   66 1  
    71   36   67 1  
@<TRIPOS>SUBSTRUCTURE
     1 MPZ         1

