### 
### Created by X-TOOL on Mon Sep 10 21:12:52 2018
### 

@<TRIPOS>MOLECULE
1y6a_ligand
   52    55     1     0     0
SMALL
GAST_HUCK


@<TRIPOS>ATOM
      1 O4         -0.2730   29.6670   22.7710 O.2       1 AAZ        -0.1709
      2 S3         -0.4270   29.9540   21.3770 S.o2      1 AAZ        -0.0106
      3 O5          0.0570   31.2530   21.0240 O.2       1 AAZ        -0.1709
      4 C2         -2.0600   29.9360   21.0470 C.3       1 AAZ         0.0665
      5 C1         -2.3170   29.7940   19.5600 C.3       1 AAZ        -0.0455
      6 C6          0.3640   28.7510   20.6130 C.ar      1 AAZ         0.0674
      7 C7          0.0070   27.4350   20.9020 C.ar      1 AAZ        -0.0577
      8 C8          0.6640   26.3600   20.2920 C.ar      1 AAZ        -0.0405
      9 C9          1.6950   26.5740   19.3650 C.ar      1 AAZ         0.1151
     10 O10         2.3450   25.5330   18.7420 O.3       1 AAZ        -0.3253
     11 C11         2.1930   24.1360   19.0580 C.3       1 AAZ         0.0569
     12 C12         2.0920   27.8870   19.0640 C.ar      1 AAZ         0.0997
     13 C31         1.4050   28.9620   19.6890 C.ar      1 AAZ        -0.0216
     14 N13         3.0060   28.0930   18.0510 N.pl3     1 AAZ        -0.2231
     15 C14         2.9010   29.1020   17.1830 C.2       1 AAZ         0.2923
     16 N15         3.7780   29.4660   16.2370 N.2       1 AAZ        -0.2988
     17 C16         3.3460   30.5380   15.6730 C.2       1 AAZ        -0.0104
     18 C17         2.1770   30.9240   16.2160 C.2       1 AAZ         0.1310
     19 O18         1.7930   30.0030   17.2280 O.3       1 AAZ        -0.2055
     20 C19         1.2200   32.0310   15.9260 C.ar      1 AAZ         0.0056
     21 C20         1.3680   32.9450   14.8930 C.ar      1 AAZ        -0.0563
     22 C21         0.3690   33.9030   14.7000 C.ar      1 AAZ        -0.0639
     23 C22        -0.7820   33.9220   15.5170 C.ar      1 AAZ        -0.0555
     24 C23        -0.9380   32.9730   16.5340 C.ar      1 AAZ        -0.0050
     25 C24         0.0620   32.0450   16.7200 C.ar      1 AAZ        -0.0469
     26 C25        -2.1340   32.9830   17.4360 C.ar      1 AAZ         0.0514
     27 C26        -3.3510   32.3840   17.0640 C.ar      1 AAZ        -0.0271
     28 C27        -4.4450   32.4480   17.9270 C.ar      1 AAZ        -0.0422
     29 C28        -4.3030   33.0910   19.1590 C.ar      1 AAZ        -0.0345
     30 C29        -3.0840   33.6790   19.5030 C.ar      1 AAZ         0.0100
     31 N30        -2.0350   33.6120   18.6520 N.ar      1 AAZ        -0.2919
     32 H1         -2.5079   30.8765   21.4003 H         1 AAZ         0.0500
     33 H2         -2.5232   29.0887   21.5737 H         1 AAZ         0.0500
     34 H3         -3.4012   29.7853   19.3745 H         1 AAZ         0.0245
     35 H4         -1.8759   28.8529   19.1999 H         1 AAZ         0.0245
     36 H5         -1.8605   30.6407   19.0265 H         1 AAZ         0.0245
     37 H6         -0.7911   27.2412   21.6095 H         1 AAZ         0.0509
     38 H7          0.3715   25.3461   20.5398 H         1 AAZ         0.0507
     39 H8          2.8368   23.5382   18.3960 H         1 AAZ         0.0573
     40 H9          1.1435   23.8396   18.9143 H         1 AAZ         0.0573
     41 H10         2.4827   23.9632   20.1050 H         1 AAZ         0.0573
     42 H11         1.6920   29.9788   19.4463 H         1 AAZ         0.0520
     43 H12         3.8001   27.4432   17.9610 H         1 AAZ         0.2181
     44 H13         3.8566   31.0618   14.8662 H         1 AAZ         0.0518
     45 H14         2.2398   32.9167   14.2494 H         1 AAZ         0.0596
     46 H15         0.4793   34.6405   13.9133 H         1 AAZ         0.0609
     47 H16        -1.5468   34.6732   15.3564 H         1 AAZ         0.0599
     48 H17        -0.0480   31.3031   17.5027 H         1 AAZ         0.0604
     49 H18        -3.4384   31.8749   16.1110 H         1 AAZ         0.0715
     50 H19        -5.3932   32.0045   17.6453 H         1 AAZ         0.0735
     51 H20        -5.1389   33.1335   19.8478 H         1 AAZ         0.0705
     52 H21        -2.9784   34.1898   20.4533 H         1 AAZ         0.0826
@<TRIPOS>BOND
     1    1    2 2  
     2    2    3 2  
     3    2    4 1  
     4    2    6 1  
     5    4    5 1  
     6    6    7 ar 
     7    6   13 ar 
     8    7    8 ar 
     9    8    9 ar 
    10    9   10 1  
    11    9   12 ar 
    12   10   11 1  
    13   12   13 ar 
    14   12   14 1  
    15   14   15 1  
    16   15   16 2  
    17   15   19 1  
    18   16   17 1  
    19   17   18 2  
    20   18   19 1  
    21   18   20 1  
    22   20   21 ar 
    23   20   25 ar 
    24   21   22 ar 
    25   22   23 ar 
    26   23   24 ar 
    27   24   25 ar 
    28   24   26 1  
    29   26   27 ar 
    30   26   31 ar 
    31   27   28 ar 
    32   28   29 ar 
    33   29   30 ar 
    34   30   31 ar 
    35    4   32 1  
    36    4   33 1  
    37    5   34 1  
    38    5   35 1  
    39    5   36 1  
    40    7   37 1  
    41    8   38 1  
    42   11   39 1  
    43   11   40 1  
    44   11   41 1  
    45   13   42 1  
    46   14   43 1  
    47   17   44 1  
    48   21   45 1  
    49   22   46 1  
    50   23   47 1  
    51   25   48 1  
    52   27   49 1  
    53   28   50 1  
    54   29   51 1  
    55   30   52 1  
@<TRIPOS>SUBSTRUCTURE
     1 AAZ         1

