### 
### Created by X-TOOL on Mon Sep 10 21:12:52 2018
### 

@<TRIPOS>MOLECULE
1y6b_ligand
   58    62     1     0     0
SMALL
GAST_HUCK


@<TRIPOS>ATOM
      1 O29        -0.0370   31.0440   21.3050 O.2       1 AAX        -0.1519
      2 S27        -0.6050   29.7780   21.5610 S.o2      1 AAX         0.0608
      3 O28        -0.4770   29.4350   22.9410 O.2       1 AAX        -0.1519
      4 N30        -2.1000   29.8570   21.0210 N.am      1 AAX        -0.2485
      5 C31        -2.2810   30.1240   19.5940 C.3       1 AAX         0.0293
      6 C32        -3.6970   30.5820   19.2470 C.3       1 AAX        -0.0242
      7 C34        -3.8610   31.1220   17.8270 C.3       1 AAX        -0.0484
      8 C33        -3.9060   32.0700   19.0180 C.3       1 AAX        -0.0484
      9 C6          0.2570   28.6170   20.7720 C.ar      1 AAX         0.0874
     10 C5          0.0050   27.2850   21.0760 C.ar      1 AAX        -0.0559
     11 C4          0.7400   26.2640   20.4720 C.ar      1 AAX        -0.0404
     12 C7          1.2700   28.8870   19.8200 C.ar      1 AAX        -0.0198
     13 C8          2.0060   27.8680   19.1720 C.ar      1 AAX         0.0998
     14 C3          1.7270   26.5530   19.5100 C.ar      1 AAX         0.1151
     15 O2          2.4440   25.5730   18.8760 O.3       1 AAX        -0.3253
     16 C1          2.2720   24.1640   19.0970 C.3       1 AAX         0.0569
     17 N9          2.9390   28.1000   18.1570 N.pl3     1 AAX        -0.2231
     18 C10         2.8590   29.1080   17.2510 C.2       1 AAX         0.2923
     19 O14         1.8350   29.9810   17.2650 O.3       1 AAX        -0.2055
     20 C13         2.1640   30.9010   16.3250 C.2       1 AAX         0.1308
     21 C12         3.3500   30.5130   15.7030 C.2       1 AAX        -0.0104
     22 N11         3.8110   29.3800   16.3060 N.2       1 AAX        -0.2988
     23 C15         1.2040   31.9670   16.0500 C.ar      1 AAX         0.0046
     24 C20         1.1520   32.5770   14.7970 C.ar      1 AAX        -0.0486
     25 C19         0.1910   33.5550   14.5390 C.ar      1 AAX        -0.0152
     26 C18        -0.7690   33.8790   15.5200 C.ar      1 AAX        -0.0571
     27 C17        -0.7460   33.1990   16.7340 C.ar      1 AAX        -0.0648
     28 C16         0.2190   32.2500   17.0030 C.ar      1 AAX        -0.0571
     29 C21         0.1890   34.2330   13.2050 C.ar      1 AAX         0.0085
     30 C26         0.0020   35.6210   13.0930 C.ar      1 AAX         0.0186
     31 N25         0.0310   36.2500   11.8970 N.ar      1 AAX        -0.2963
     32 C24         0.2250   35.5520   10.7720 C.ar      1 AAX         0.0108
     33 C23         0.4280   34.1700   10.8220 C.ar      1 AAX        -0.0338
     34 C22         0.3910   33.4920   12.0440 C.ar      1 AAX        -0.0351
     35 H1         -2.8821   29.7296   21.6310 H         1 AAX         0.1671
     36 H2         -2.0639   29.2021   19.0346 H         1 AAX         0.0478
     37 H3         -1.5743   30.9111   19.2923 H         1 AAX         0.0478
     38 H4         -4.4622   29.9598   19.7340 H         1 AAX         0.0316
     39 H5         -4.7782   30.9077   17.2589 H         1 AAX         0.0269
     40 H6         -3.0008   31.1393   17.1417 H         1 AAX         0.0269
     41 H7         -3.0786   32.7739   19.1912 H         1 AAX         0.0269
     42 H8         -4.8561   32.5422   19.3084 H         1 AAX         0.0269
     43 H9         -0.7713   27.0360   21.7904 H         1 AAX         0.0509
     44 H10         0.5483   25.2332   20.7474 H         1 AAX         0.0507
     45 H11         1.4910   29.9201   19.5773 H         1 AAX         0.0521
     46 H12         2.9732   23.6047   18.4602 H         1 AAX         0.0573
     47 H13         1.2402   23.8768   18.8464 H         1 AAX         0.0573
     48 H14         2.4710   23.9316   20.1536 H         1 AAX         0.0573
     49 H15         3.7441   27.4609   18.0919 H         1 AAX         0.2181
     50 H16         3.8292   31.0295   14.8726 H         1 AAX         0.0518
     51 H17         1.8571   32.2917   14.0247 H         1 AAX         0.0596
     52 H18        -1.5125   34.6450   15.3315 H         1 AAX         0.0592
     53 H19        -1.4996   33.4187   17.4816 H         1 AAX         0.0607
     54 H20         0.2141   31.7245   17.9511 H         1 AAX         0.0589
     55 H21        -0.1703   36.2036   13.9907 H         1 AAX         0.0831
     56 H22         0.2247   36.0618    9.8154 H         1 AAX         0.0820
     57 H23         0.6154   33.6201    9.9068 H         1 AAX         0.0709
     58 H24         0.5165   32.4161   12.0864 H         1 AAX         0.0741
@<TRIPOS>BOND
     1    1    2 2  
     2    2    3 2  
     3    2    4 am 
     4    2    9 1  
     5    4    5 1  
     6    5    6 1  
     7    6    7 1  
     8    6    8 1  
     9    7    8 1  
    10    9   10 ar 
    11    9   12 ar 
    12   10   11 ar 
    13   11   14 ar 
    14   12   13 ar 
    15   13   14 ar 
    16   13   17 1  
    17   14   15 1  
    18   15   16 1  
    19   17   18 1  
    20   18   19 1  
    21   18   22 2  
    22   19   20 1  
    23   20   21 2  
    24   20   23 1  
    25   21   22 1  
    26   23   24 ar 
    27   23   28 ar 
    28   24   25 ar 
    29   25   26 ar 
    30   25   29 1  
    31   26   27 ar 
    32   27   28 ar 
    33   29   30 ar 
    34   29   34 ar 
    35   30   31 ar 
    36   31   32 ar 
    37   32   33 ar 
    38   33   34 ar 
    39    4   35 1  
    40    5   36 1  
    41    5   37 1  
    42    6   38 1  
    43    7   39 1  
    44    7   40 1  
    45    8   41 1  
    46    8   42 1  
    47   10   43 1  
    48   11   44 1  
    49   12   45 1  
    50   16   46 1  
    51   16   47 1  
    52   16   48 1  
    53   17   49 1  
    54   21   50 1  
    55   24   51 1  
    56   26   52 1  
    57   27   53 1  
    58   28   54 1  
    59   30   55 1  
    60   32   56 1  
    61   33   57 1  
    62   34   58 1  
@<TRIPOS>SUBSTRUCTURE
     1 AAX         1

