### 
### Created by X-TOOL on Mon Sep 10 21:12:52 2018
### 

@<TRIPOS>MOLECULE
1y6q_ligand
   40    42     1     0     0
SMALL
GAST_HUCK


@<TRIPOS>ATOM
      1 C2         53.7900   75.1190   21.0330 C.ar      1 TDI         0.0439
      2 C4         55.6790   74.3550   19.8430 C.ar      1 TDI         0.0483
      3 C5         54.8770   74.0900   18.7010 C.ar      1 TDI         0.1304
      4 C6         53.4970   74.3660   18.7960 C.ar      1 TDI         0.1459
      5 CS5        56.5700   68.2030   23.2220 C.3       1 TDI        -0.0181
      6 S          55.7080   69.7770   23.5630 S.3       1 TDI        -0.1636
      7 C5         56.9130   70.5670   22.4960 C.3       1 TDI         0.0036
      8 C4         58.2510   71.2650   22.3400 C.3       1 TDI         0.0391
      9 C1         58.5780   72.0500   21.0660 C.3       1 TDI        -0.0248
     10 N1         58.8430   73.4480   21.5300 N.4       1 TDI         0.2442
     11 C10        58.2450   74.0610   20.3350 C.3       1 TDI        -0.0117
     12 C9         57.0260   73.9740   19.4560 C.2       1 TDI         0.0166
     13 C8         56.9820   73.5270   18.1810 C.2       1 TDI         0.0326
     14 N7         55.7000   73.5930   17.7220 N.pl3     1 TDI        -0.2768
     15 N6         52.6690   74.1190   17.7070 N.pl3     1 TDI        -0.3157
     16 N1         52.9990   74.8770   19.9740 N.ar      1 TDI        -0.2741
     17 N3         55.1080   74.8660   20.9800 N.ar      1 TDI        -0.3132
     18 C2         57.8580   73.6670   22.6390 C.3       1 TDI        -0.0040
     19 C3         57.8620   72.3290   23.4120 C.3       1 TDI         0.1032
     20 O3         59.1610   72.3450   24.0480 O.3       1 TDI        -0.3860
     21 H1         53.3589   75.5235   21.9416 H         1 TDI         0.0956
     22 H2         56.0690   67.3861   23.7621 H         1 TDI         0.0340
     23 H3         57.6151   68.2772   23.5570 H         1 TDI         0.0340
     24 H4         56.5450   67.9978   22.1416 H         1 TDI         0.0340
     25 H5         56.2664   71.3373   22.0503 H         1 TDI         0.0382
     26 H6         57.0619   69.7506   21.7740 H         1 TDI         0.0382
     27 H7         59.0966   70.6115   22.6004 H         1 TDI         0.0388
     28 H8         57.7269   72.0286   20.3695 H         1 TDI         0.0818
     29 H9         59.4671   71.6317   20.5715 H         1 TDI         0.0818
     30 H10        59.7954   73.6951   21.7489 H         1 TDI         0.2042
     31 H11        59.0475   73.9117   19.5976 H         1 TDI         0.0901
     32 H12        58.2139   75.1191   20.6341 H         1 TDI         0.0901
     33 H13        57.8374   73.1698   17.6095 H         1 TDI         0.0886
     34 H14        55.3944   73.3114   16.7796 H         1 TDI         0.2266
     35 H15        51.6606   74.3187   17.7710 H         1 TDI         0.1805
     36 H16        53.0639   73.7363   16.8361 H         1 TDI         0.1805
     37 H17        56.8574   73.8829   22.2363 H         1 TDI         0.0840
     38 H18        58.1783   74.4948   23.2887 H         1 TDI         0.0840
     39 H19        56.9799   72.1267   24.0372 H         1 TDI         0.0652
     40 H20        59.2240   73.1025   24.6178 H         1 TDI         0.2100
@<TRIPOS>BOND
     1    1   16 ar 
     2   17    1 ar 
     3    2    3 ar 
     4   12    2 1  
     5    2   17 ar 
     6    3    4 ar 
     7    3   14 1  
     8    4   15 1  
     9    4   16 ar 
    10    6    5 1  
    11    7    6 1  
    12    8    7 1  
    13    9    8 1  
    14    8   19 1  
    15   10    9 1  
    16   11   10 1  
    17   10   18 1  
    18   11   12 1  
    19   12   13 2  
    20   13   14 1  
    21   18   19 1  
    22   19   20 1  
    23    1   21 1  
    24    5   22 1  
    25    5   23 1  
    26    5   24 1  
    27    7   25 1  
    28    7   26 1  
    29    8   27 1  
    30    9   28 1  
    31    9   29 1  
    32   10   30 1  
    33   11   31 1  
    34   11   32 1  
    35   13   33 1  
    36   14   34 1  
    37   15   35 1  
    38   15   36 1  
    39   18   37 1  
    40   18   38 1  
    41   19   39 1  
    42   20   40 1  
@<TRIPOS>SUBSTRUCTURE
     1 TDI         1

