### 
### Created by X-TOOL on Mon Sep 10 21:12:52 2018
### 

@<TRIPOS>MOLECULE
1y91_ligand
   68    71     1     0     0
SMALL
GAST_HUCK


@<TRIPOS>ATOM
      1 N8         -2.6880   61.9650   14.0510 N.4       1 CT9         0.2207
      2 C61         5.7680   58.0480    5.9130 C.3       1 CT9         0.0179
      3 S1          7.0200   60.2790    6.6190 S.o2      1 CT9         0.0709
      4 N6          6.2790   58.8860    7.0020 N.am      1 CT9        -0.2400
      5 C62         6.1040   58.4520    8.3930 C.3       1 CT9         0.0179
      6 O2          7.6140   60.0770    5.2870 O.2       1 CT9        -0.1499
      7 C4         -2.4050   62.2520   12.6290 C.3       1 CT9        -0.0242
      8 C5         -1.1140   63.0730   12.5240 C.3       1 CT9        -0.0077
      9 C6         -0.7830   63.3330   11.0650 C.3       1 CT9        -0.0249
     10 C3         -2.2510   60.9320   11.8630 C.3       1 CT9        -0.0077
     11 C2         -1.8910   61.2200   10.4060 C.3       1 CT9        -0.0249
     12 C1         -0.5900   62.0090   10.3560 C.3       1 CT9         0.0396
     13 N7         -0.4040   62.3440    8.9680 N.pl3     1 CT9        -0.2975
     14 C7          0.1690   63.4270    8.4180 C.ar      1 CT9         0.1524
     15 C8          1.3490   63.3660    7.6900 C.ar      1 CT9         0.0646
     16 N1         -0.4940   64.5770    8.5140 N.ar      1 CT9        -0.2268
     17 C10         0.0090   65.6570    7.9420 C.ar      1 CT9         0.1496
     18 C11        -0.5190   66.9200    7.9650 C.2       1 CT9         0.0570
     19 C20        -1.7870   67.3040    8.6150 C.3       1 CT9         0.0041
     20 C21        -1.7940   67.6710   10.0740 C.3       1 CT9        -0.0486
     21 C22        -2.9750   66.4940    8.2400 C.3       1 CT9        -0.0486
     22 C12         0.3630   67.6870    7.2210 C.2       1 CT9         0.1084
     23 N2          1.1210   65.6480    7.2390 N.ar      1 CT9        -0.1809
     24 N3          1.3610   66.8780    6.7890 N.pl3     1 CT9        -0.1910
     25 C9          1.8390   64.5330    7.0950 C.ar      1 CT9         0.1975
     26 N5          2.9990   64.5790    6.3820 N.pl3     1 CT9        -0.2257
     27 C13         3.9160   63.5980    6.4150 C.ar      1 CT9         0.0980
     28 C18         4.2020   62.9750    7.6430 C.ar      1 CT9        -0.0172
     29 C17         5.1560   61.9770    7.6720 C.ar      1 CT9        -0.0305
     30 C14         4.5830   63.2140    5.2330 C.ar      1 CT9        -0.0172
     31 C15         5.5370   62.2000    5.2910 C.ar      1 CT9        -0.0305
     32 C16         5.8180   61.5930    6.5010 C.ar      1 CT9         0.1102
     33 O3          7.9370   60.7000    7.6690 O.2       1 CT9        -0.1499
     34 H1         -2.7893   62.8320   14.5550 H         1 CT9         0.1997
     35 H2         -1.9267   61.4345   14.4447 H         1 CT9         0.1997
     36 H3         -3.5410   61.4328   14.1231 H         1 CT9         0.1997
     37 H4          5.2973   57.1471    6.3335 H         1 CT9         0.0442
     38 H5          6.5993   57.7543    5.2553 H         1 CT9         0.0442
     39 H6          5.0239   58.6137    5.3332 H         1 CT9         0.0442
     40 H7          5.5791   57.4855    8.4122 H         1 CT9         0.0442
     41 H8          5.5125   59.2014    8.9393 H         1 CT9         0.0442
     42 H9          7.0892   58.3436    8.8700 H         1 CT9         0.0442
     43 H10        -3.2381   62.8271   12.1987 H         1 CT9         0.0850
     44 H11        -0.2886   62.5159   12.9914 H         1 CT9         0.0320
     45 H12        -1.2491   64.0330   13.0438 H         1 CT9         0.0320
     46 H13         0.1415   63.9251   10.9971 H         1 CT9         0.0289
     47 H14        -1.6083   63.8863   10.5932 H         1 CT9         0.0289
     48 H15        -3.1982   60.3741   11.9020 H         1 CT9         0.0320
     49 H16        -1.4529   60.3323   12.3249 H         1 CT9         0.0320
     50 H17        -2.6949   61.8070    9.9379 H         1 CT9         0.0289
     51 H18        -1.7663   60.2711    9.8638 H         1 CT9         0.0289
     52 H19         0.2532   61.4387   10.7728 H         1 CT9         0.0556
     53 H20        -0.7638   61.6500    8.2974 H         1 CT9         0.1825
     54 H21         1.8826   62.4284    7.5842 H         1 CT9         0.0823
     55 H22        -1.9911   68.2722    8.1344 H         1 CT9         0.0529
     56 H23        -2.8183   67.9270   10.3828 H         1 CT9         0.0265
     57 H24        -1.1347   68.5362   10.2377 H         1 CT9         0.0265
     58 H25        -1.4342   66.8182   10.6684 H         1 CT9         0.0265
     59 H26        -2.9286   66.2493    7.1686 H         1 CT9         0.0265
     60 H27        -3.8902   67.0685    8.4455 H         1 CT9         0.0265
     61 H28        -2.9856   65.5645    8.8282 H         1 CT9         0.0265
     62 H29         0.2706   68.7531    7.0188 H         1 CT9         0.1261
     63 H30         2.1652   67.1648    6.2128 H         1 CT9         0.2791
     64 H31         3.1810   65.4029    5.7912 H         1 CT9         0.2478
     65 H32         3.6843   63.2720    8.5479 H         1 CT9         0.0636
     66 H33         5.3937   61.4873    8.6094 H         1 CT9         0.0647
     67 H34         4.3564   63.7014    4.2916 H         1 CT9         0.0636
     68 H35         6.0563   61.8886    4.3919 H         1 CT9         0.0647
@<TRIPOS>BOND
     1    7    1 1  
     2    4    2 1  
     3    3    4 am 
     4    3    6 2  
     5   32    3 1  
     6    3   33 2  
     7    4    5 1  
     8    8    7 1  
     9   10    7 1  
    10    9    8 1  
    11   12    9 1  
    12   11   10 1  
    13   12   11 1  
    14   13   12 1  
    15   14   13 1  
    16   15   14 ar 
    17   14   16 ar 
    18   25   15 ar 
    19   17   16 ar 
    20   17   18 1  
    21   23   17 ar 
    22   18   19 1  
    23   22   18 2  
    24   19   20 1  
    25   19   21 1  
    26   24   22 1  
    27   23   24 1  
    28   25   23 ar 
    29   26   25 1  
    30   27   26 1  
    31   28   27 ar 
    32   27   30 ar 
    33   29   28 ar 
    34   29   32 ar 
    35   30   31 ar 
    36   31   32 ar 
    37    1   34 1  
    38    1   35 1  
    39    1   36 1  
    40    2   37 1  
    41    2   38 1  
    42    2   39 1  
    43    5   40 1  
    44    5   41 1  
    45    5   42 1  
    46    7   43 1  
    47    8   44 1  
    48    8   45 1  
    49    9   46 1  
    50    9   47 1  
    51   10   48 1  
    52   10   49 1  
    53   11   50 1  
    54   11   51 1  
    55   12   52 1  
    56   13   53 1  
    57   15   54 1  
    58   19   55 1  
    59   20   56 1  
    60   20   57 1  
    61   20   58 1  
    62   21   59 1  
    63   21   60 1  
    64   21   61 1  
    65   22   62 1  
    66   24   63 1  
    67   26   64 1  
    68   28   65 1  
    69   29   66 1  
    70   30   67 1  
    71   31   68 1  
@<TRIPOS>SUBSTRUCTURE
     1 CT9         1

