### 
### Created by X-TOOL on Mon Sep 10 21:12:52 2018
### 

@<TRIPOS>MOLECULE
1ya4_ligand
   58    60     1     0     0
SMALL
GAST_HUCK


@<TRIPOS>ATOM
      1 CA         -1.5910   38.1990   37.8080 C.3       1 CTX        -0.0541
      2 CB         -1.1130   39.6060   37.4220 C.3       1 CTX        -0.0187
      3 OL          3.7350   43.7100   43.0990 O.3       1 CTX        -0.3130
      4 CA1         4.8010   44.6710   42.7510 C.3       1 CTX         0.1101
      5 CB1         5.5470   45.1600   43.9930 C.3       1 CTX        -0.0039
      6 C1          2.8570   43.1010   42.1950 C.ar      1 CTX         0.0907
      7 C2          2.8480   43.3170   40.7510 C.ar      1 CTX        -0.0340
      8 C3          1.8950   42.6700   39.9440 C.ar      1 CTX        -0.0658
      9 C5          0.9180   41.5510   41.9310 C.ar      1 CTX        -0.0658
     10 C6          1.8780   42.1980   42.7790 C.ar      1 CTX        -0.0340
     11 C4          0.8970   41.7690   40.5050 C.ar      1 CTX        -0.0367
     12 C7         -0.2010   41.1000   39.5440 C.2       1 CTX        -0.0180
     13 C8         -1.5900   41.5210   40.0130 C.ar      1 CTX        -0.0291
     14 C9         -2.5490   40.5390   40.4890 C.ar      1 CTX        -0.0594
     15 C10        -3.8390   40.9610   40.9300 C.ar      1 CTX        -0.0650
     16 C11        -4.1870   42.3410   40.9090 C.ar      1 CTX        -0.0652
     17 C12        -3.2510   43.3170   40.4440 C.ar      1 CTX        -0.0650
     18 C13        -1.9840   42.9180   40.0070 C.ar      1 CTX        -0.0594
     19 C14         3.2090   39.8190   36.2130 C.ar      1 CTX        -0.0608
     20 C15         4.0430   39.0660   37.0890 C.ar      1 CTX        -0.0615
     21 C16         3.5750   38.6820   38.3720 C.ar      1 CTX        -0.0608
     22 C17         2.2720   39.0500   38.7790 C.ar      1 CTX        -0.0530
     23 C18         1.4230   39.8090   37.9050 C.ar      1 CTX        -0.0151
     24 C19         1.9060   40.1900   36.6170 C.ar      1 CTX        -0.0530
     25 C20        -0.0040   40.2130   38.3510 C.2       1 CTX        -0.0259
     26 NI          7.0640   45.2840   43.7180 N.4       1 CTX         0.2328
     27 C21         7.7110   44.0090   43.3150 C.3       1 CTX        -0.0433
     28 C22         7.3830   46.3560   42.7110 C.3       1 CTX        -0.0433
     29 H1         -2.3634   37.8668   37.0988 H         1 CTX         0.0255
     30 H2         -2.0113   38.2205   38.8243 H         1 CTX         0.0255
     31 H3         -0.7409   37.5017   37.7774 H         1 CTX         0.0255
     32 H4         -1.9826   40.2792   37.4456 H         1 CTX         0.0447
     33 H5         -0.7122   39.5604   36.3987 H         1 CTX         0.0447
     34 H6          4.3497   45.5357   42.2424 H         1 CTX         0.0668
     35 H7          5.5168   44.1805   42.0750 H         1 CTX         0.0668
     36 H8          5.3878   44.4442   44.8129 H         1 CTX         0.0841
     37 H9          5.1530   46.1448   44.2844 H         1 CTX         0.0841
     38 H10         3.5785   43.9784   40.2993 H         1 CTX         0.0543
     39 H11         1.9033   42.8467   38.8745 H         1 CTX         0.0573
     40 H12         0.1896   40.8810   42.3734 H         1 CTX         0.0573
     41 H13         1.8735   42.0149   43.8474 H         1 CTX         0.0543
     42 H14        -2.2852   39.4878   40.5092 H         1 CTX         0.0591
     43 H15        -4.5561   40.2283   41.2821 H         1 CTX         0.0608
     44 H16        -5.1680   42.6542   41.2477 H         1 CTX         0.0589
     45 H17        -3.5236   44.3661   40.4303 H         1 CTX         0.0608
     46 H18        -1.2824   43.6666   39.6570 H         1 CTX         0.0591
     47 H19         3.5745   40.1082   35.2343 H         1 CTX         0.0618
     48 H20         5.0411   38.7848   36.7732 H         1 CTX         0.0619
     49 H21         4.2126   38.1099   39.0363 H         1 CTX         0.0618
     50 H22         1.9114   38.7568   39.7583 H         1 CTX         0.0629
     51 H23         1.2739   40.7636   35.9488 H         1 CTX         0.0629
     52 H24         7.4866   45.5620   44.5899 H         1 CTX         0.2029
     53 H25         8.7830   44.1815   43.1389 H         1 CTX         0.0777
     54 H26         7.2432   43.6362   42.3919 H         1 CTX         0.0777
     55 H27         7.5860   43.2652   44.1157 H         1 CTX         0.0777
     56 H28         6.9020   47.2979   43.0134 H         1 CTX         0.0777
     57 H29         7.0077   46.0537   41.7222 H         1 CTX         0.0777
     58 H30         8.4724   46.5001   42.6614 H         1 CTX         0.0777
@<TRIPOS>BOND
     1    2    1 1  
     2   25    2 1  
     3    3    4 1  
     4    6    3 1  
     5    4    5 1  
     6    5   26 1  
     7    7    6 ar 
     8   10    6 ar 
     9    8    7 ar 
    10   11    8 ar 
    11    9   10 ar 
    12   11    9 ar 
    13   12   11 1  
    14   12   13 1  
    15   25   12 2  
    16   13   14 ar 
    17   13   18 ar 
    18   14   15 ar 
    19   15   16 ar 
    20   17   16 ar 
    21   18   17 ar 
    22   19   20 ar 
    23   24   19 ar 
    24   21   20 ar 
    25   22   21 ar 
    26   23   22 ar 
    27   23   24 ar 
    28   23   25 1  
    29   26   27 1  
    30   26   28 1  
    31    1   29 1  
    32    1   30 1  
    33    1   31 1  
    34    2   32 1  
    35    2   33 1  
    36    4   34 1  
    37    4   35 1  
    38    5   36 1  
    39    5   37 1  
    40    7   38 1  
    41    8   39 1  
    42    9   40 1  
    43   10   41 1  
    44   14   42 1  
    45   15   43 1  
    46   16   44 1  
    47   17   45 1  
    48   18   46 1  
    49   19   47 1  
    50   20   48 1  
    51   21   49 1  
    52   22   50 1  
    53   24   51 1  
    54   26   52 1  
    55   27   53 1  
    56   27   54 1  
    57   27   55 1  
    58   28   56 1  
    59   28   57 1  
    60   28   58 1  
@<TRIPOS>SUBSTRUCTURE
     1 CTX         1

