### 
### Created by X-TOOL on Mon Sep 10 21:12:53 2018
### 

@<TRIPOS>MOLECULE
1ybg_ligand
   70    74     1     0     0
SMALL
GAST_HUCK


@<TRIPOS>ATOM
      1 C1        -74.9720   -8.6990   95.4140 C.ar      1 TAV         0.1146
      2 C2        -73.9750   -9.4040   96.0590 C.ar      1 TAV        -0.0268
      3 C3        -74.2520  -10.7380   96.5560 C.ar      1 TAV        -0.0160
      4 C4        -75.5710  -11.3110   96.3580 C.ar      1 TAV        -0.0178
      5 C5        -76.5670  -10.5470   95.6800 C.ar      1 TAV        -0.0522
      6 C6        -76.2840   -9.2890   95.2240 C.ar      1 TAV        -0.0340
      7 C9        -73.2530  -11.5180   97.2510 C.ar      1 TAV        -0.0540
      8 C10       -75.8570  -12.6380   96.8530 C.ar      1 TAV        -0.0540
      9 C13       -74.8850  -13.3540   97.5120 C.ar      1 TAV        -0.0612
     10 C14       -73.5560  -12.7840   97.7170 C.ar      1 TAV        -0.0612
     11 S18       -74.6780   -7.0160   94.7740 S.o2      1 TAV         0.0892
     12 O19       -75.8380   -6.6310   93.9930 O.2       1 TAV        -0.1446
     13 N20       -73.3510   -7.2580   93.7840 N.am      1 TAV        -0.1879
     14 C21       -74.6970   -8.8090   90.6420 C.ar      1 TAV        -0.0406
     15 C22       -74.6460   -8.0700   91.8030 C.ar      1 TAV        -0.0461
     16 C23       -73.4640   -8.0220   92.5670 C.ar      1 TAV         0.0739
     17 C24       -72.3200   -8.7500   92.1480 C.ar      1 TAV         0.0580
     18 C25       -72.3600   -9.5100   90.9590 C.ar      1 TAV        -0.0260
     19 C26       -73.5560   -9.5160   90.2010 C.ar      1 TAV         0.1114
     20 C29       -71.0850   -8.6830   93.0120 C.2       1 TAV         0.1951
     21 S31       -72.5530  -10.2770   87.3520 S.o2      1 TAV         0.1275
     22 C32       -68.3790   -4.7880   87.7950 C.ar      1 TAV        -0.0612
     23 C33       -69.7290   -4.8460   87.5510 C.ar      1 TAV        -0.0540
     24 C34       -70.4090   -6.1220   87.5130 C.ar      1 TAV        -0.0178
     25 C35       -69.6430   -7.3390   87.7370 C.ar      1 TAV        -0.0160
     26 C36       -68.2250   -7.2390   87.9940 C.ar      1 TAV        -0.0540
     27 C37       -67.6160   -6.0050   88.0220 C.ar      1 TAV        -0.0612
     28 C41       -71.8250   -6.2200   87.2530 C.ar      1 TAV        -0.0521
     29 C42       -70.3260   -8.6240   87.6910 C.ar      1 TAV        -0.0264
     30 C45       -71.6940   -8.6750   87.4380 C.ar      1 TAV         0.1214
     31 C46       -72.4550   -7.4510   87.2130 C.ar      1 TAV        -0.0335
     32 N49       -70.0900   -7.6480   92.7540 N.am      1 TAV        -0.2614
     33 O50       -70.9280   -9.4880   93.9210 O.2       1 TAV        -0.3942
     34 O51       -73.3350  -10.1140   88.7640 O.3       1 TAV        -0.1765
     35 O52       -73.4960  -10.2210   86.2640 O.2       1 TAV        -0.1384
     36 O53       -71.5790  -11.3680   87.5320 O.2       1 TAV        -0.1384
     37 O54       -74.2720   -6.2000   95.9100 O.2       1 TAV        -0.1446
     38 C56       -69.6180   -7.3230   91.3810 C.3       1 TAV         0.0238
     39 C57       -68.9760   -7.7930   93.7550 C.3       1 TAV         0.1073
     40 C61       -68.4100   -6.3580   94.1280 C.2       1 TAV         0.0619
     41 O62       -68.9890   -5.3080   93.8450 O.co2     1 TAV        -0.5665
     42 O63       -67.1740   -6.3040   94.8180 O.co2     1 TAV        -0.5665
     43 C64       -66.8070   -9.3170   94.4230 C.2       1 TAV         0.0387
     44 O65       -67.1600   -9.8570   95.4750 O.co2     1 TAV        -0.5688
     45 O66       -65.4390   -9.1100   94.1640 O.co2     1 TAV        -0.5688
     46 C67       -67.8660   -8.8840   93.3210 C.3       1 TAV         0.0352
     47 H1        -72.9934   -8.9639   96.1927 H         1 TAV         0.0643
     48 H2        -77.5546  -10.9663   95.5252 H         1 TAV         0.0624
     49 H3        -77.0534   -8.7227   94.7116 H         1 TAV         0.0637
     50 H4        -72.2616  -11.1085   97.4076 H         1 TAV         0.0624
     51 H5        -76.8400  -13.0703   96.7046 H         1 TAV         0.0624
     52 H6        -75.1069  -14.3485   97.8819 H         1 TAV         0.0618
     53 H7        -72.8000  -13.3590   98.2395 H         1 TAV         0.0618
     54 H8        -72.4670   -6.8670   94.0403 H         1 TAV         0.2158
     55 H9        -75.6142   -8.8483   90.0655 H         1 TAV         0.0543
     56 H10       -75.5216   -7.5216   92.1310 H         1 TAV         0.0474
     57 H11       -71.4947  -10.0762   90.6337 H         1 TAV         0.0548
     58 H12       -67.8778   -3.8271   87.8186 H         1 TAV         0.0618
     59 H13       -70.2875   -3.9317   87.3862 H         1 TAV         0.0624
     60 H14       -67.6406   -8.1358   88.1648 H         1 TAV         0.0624
     61 H15       -66.5516   -5.9393   88.2162 H         1 TAV         0.0618
     62 H16       -72.4023   -5.3177   87.0869 H         1 TAV         0.0624
     63 H17       -69.7698   -9.5401   87.8536 H         1 TAV         0.0643
     64 H18       -73.5191   -7.5063   87.0135 H         1 TAV         0.0638
     65 H19       -70.4831   -7.2328   90.7077 H         1 TAV         0.0486
     66 H20       -68.9557   -8.1244   91.0216 H         1 TAV         0.0486
     67 H21       -69.0663   -6.3716   91.3985 H         1 TAV         0.0486
     68 H22       -69.4311   -8.1899   94.6744 H         1 TAV         0.0746
     69 H23       -67.3071   -8.4676   92.4700 H         1 TAV         0.0471
     70 H24       -68.4001   -9.7906   93.0005 H         1 TAV         0.0471
@<TRIPOS>BOND
     1    1    2 ar 
     2    1    6 ar 
     3   11    1 1  
     4    2    3 ar 
     5    3    4 ar 
     6    3    7 ar 
     7    5    4 ar 
     8    4    8 ar 
     9    6    5 ar 
    10    7   10 ar 
    11    8    9 ar 
    12   10    9 ar 
    13   11   12 2  
    14   13   11 am 
    15   11   37 2  
    16   16   13 1  
    17   15   14 ar 
    18   19   14 ar 
    19   16   15 ar 
    20   17   16 ar 
    21   17   18 ar 
    22   20   17 1  
    23   18   19 ar 
    24   19   34 1  
    25   32   20 am 
    26   20   33 2  
    27   21   30 1  
    28   34   21 1  
    29   21   35 2  
    30   21   36 2  
    31   23   22 ar 
    32   27   22 ar 
    33   24   23 ar 
    34   25   24 ar 
    35   28   24 ar 
    36   25   26 ar 
    37   29   25 ar 
    38   26   27 ar 
    39   31   28 ar 
    40   30   29 ar 
    41   30   31 ar 
    42   32   38 1  
    43   39   32 1  
    44   39   40 1  
    45   46   39 1  
    46   40   41 ar 
    47   40   42 ar 
    48   43   44 ar 
    49   43   45 ar 
    50   43   46 1  
    51    2   47 1  
    52    5   48 1  
    53    6   49 1  
    54    7   50 1  
    55    8   51 1  
    56    9   52 1  
    57   10   53 1  
    58   13   54 1  
    59   14   55 1  
    60   15   56 1  
    61   18   57 1  
    62   22   58 1  
    63   23   59 1  
    64   26   60 1  
    65   27   61 1  
    66   28   62 1  
    67   29   63 1  
    68   31   64 1  
    69   38   65 1  
    70   38   66 1  
    71   38   67 1  
    72   39   68 1  
    73   46   69 1  
    74   46   70 1  
@<TRIPOS>SUBSTRUCTURE
     1 TAV         1

