### 
### Created by X-TOOL on Mon Sep 10 21:12:52 2018
### 

@<TRIPOS>MOLECULE
1yc4_ligand
   34    36     1     0     0
SMALL
GAST_HUCK


@<TRIPOS>ATOM
      1 OAQ        32.7690   32.2390   -3.8380 O.3       1 43P        -0.3363
      2 CAF        33.9300   32.1240   -3.1370 C.ar      1 43P         0.0870
      3 CAJ        33.8620   31.7060   -1.8070 C.ar      1 43P        -0.0081
      4 CAL        35.0320   31.5290   -1.0690 C.ar      1 43P         0.0836
      5 OAR        34.9460   31.2410    0.2620 O.3       1 43P        -0.3378
      6 CAM        36.2710   31.7420   -1.6720 C.ar      1 43P        -0.0229
      7 CAS        37.5870   31.3210   -1.0050 C.3       1 43P        -0.0283
      8 CAT        37.7730   29.8000   -1.0560 C.3       1 43P        -0.0583
      9 CAG        36.3180   32.2020   -2.9890 C.ar      1 43P        -0.0653
     10 CAC        35.1570   32.3960   -3.7360 C.ar      1 43P         0.0225
     11 CAB        35.2030   32.8350   -5.0630 C.2       1 43P         0.0806
     12 NAE        34.8650   32.1240   -6.1400 N.pl3     1 43P        -0.2221
     13 NAI        35.0220   32.7870   -7.1700 N.2       1 43P        -0.2244
     14 CAK        35.4930   33.9940   -6.8710 C.2       1 43P        -0.0018
     15 CAA        35.6180   34.0750   -5.5490 C.2       1 43P        -0.0082
     16 CAD        35.9810   35.2120   -4.8340 C.2       1 43P         0.0049
     17 CAP        36.6170   36.2670   -5.3390 C.2       1 43P         0.0354
     18 NAN        36.7480   37.1850   -4.3850 N.pl3     1 43P        -0.2682
     19 CAO        36.1990   36.7030   -3.2730 C.2       1 43P         0.0942
     20 NAH        35.7300   35.4900   -3.5570 N.2       1 43P        -0.3262
     21 H1         32.3340   31.3950   -3.8687 H         1 43P         0.2480
     22 H2         32.8984   31.5187   -1.3471 H         1 43P         0.0451
     23 H3         34.4682   30.4282    0.3788 H         1 43P         0.2467
     24 H4         37.5767   31.6461    0.0458 H         1 43P         0.0382
     25 H5         38.4253   31.8027   -1.5296 H         1 43P         0.0382
     26 H6         38.7229   29.5303   -0.5712 H         1 43P         0.0247
     27 H7         37.7891   29.4675   -2.1044 H         1 43P         0.0247
     28 H8         36.9405   29.3109   -0.5290 H         1 43P         0.0247
     29 H9         37.2800   32.4134   -3.4417 H         1 43P         0.0498
     30 H10        34.5199   31.1538   -6.1158 H         1 43P         0.2506
     31 H11        35.7346   34.7802   -7.5848 H         1 43P         0.0650
     32 H12        36.9716   36.3628   -6.3642 H         1 43P         0.0817
     33 H13        37.1957   38.1068   -4.4890 H         1 43P         0.2398
     34 H14        36.1436   37.2072   -2.3094 H         1 43P         0.1223
@<TRIPOS>BOND
     1    1    2 1  
     2    2    3 ar 
     3    2   10 ar 
     4    3    4 ar 
     5    4    5 1  
     6    4    6 ar 
     7    6    7 1  
     8    6    9 ar 
     9    7    8 1  
    10    9   10 ar 
    11   10   11 1  
    12   11   12 1  
    13   11   15 2  
    14   12   13 1  
    15   13   14 2  
    16   14   15 1  
    17   15   16 1  
    18   16   17 2  
    19   16   20 1  
    20   17   18 1  
    21   18   19 1  
    22   19   20 2  
    23    1   21 1  
    24    3   22 1  
    25    5   23 1  
    26    7   24 1  
    27    7   25 1  
    28    8   26 1  
    29    8   27 1  
    30    8   28 1  
    31    9   29 1  
    32   12   30 1  
    33   14   31 1  
    34   17   32 1  
    35   18   33 1  
    36   19   34 1  
@<TRIPOS>SUBSTRUCTURE
     1 43P         1

