### 
### Created by X-TOOL on Mon Sep 10 21:12:53 2018
### 

@<TRIPOS>MOLECULE
1yci_ligand
   26    26     1     0     0
SMALL
GAST_HUCK


@<TRIPOS>ATOM
      1 CD1        19.9640   26.2530   33.0160 C.ar      1 NDF        -0.0602
      2 CE1        21.0920   26.3910   33.8350 C.ar      1 NDF        -0.0686
      3 CZ         22.1630   25.5290   33.6870 C.ar      1 NDF        -0.0687
      4 CE2        22.1180   24.5170   32.7170 C.ar      1 NDF        -0.0686
      5 CD2        21.0040   24.3790   31.9090 C.ar      1 NDF        -0.0602
      6 CG         19.9200   25.2540   32.0610 C.ar      1 NDF        -0.0392
      7 CB         18.6770   25.0850   31.1830 C.3       1 NDF         0.0161
      8 CA         18.7960   25.8620   29.8710 C.3       1 NDF         0.1047
      9 C          17.5210   25.6550   29.0560 C.2       1 NDF         0.0623
     10 O          17.5440   25.0490   27.9890 O.co2     1 NDF        -0.5664
     11 OXT        16.4440   26.1010   29.4740 O.co2     1 NDF        -0.5664
     12 N          19.9690   25.3670   29.1360 N.am      1 NDF        -0.2614
     13 C2         21.0750   26.0940   28.9940 C.2       1 NDF         0.2455
     14 O2'        21.1840   27.2410   29.4270 O.2       1 NDF        -0.3655
     15 C1         22.2630   25.4980   28.2380 C.2       1 NDF         0.1433
     16 O1         22.1420   24.4000   27.6740 O.co2     1 NDF        -0.5457
     17 O2         23.3320   26.0870   28.1950 O.co2     1 NDF        -0.5457
     18 H1         19.1251   26.9298   33.1310 H         1 NDF         0.0557
     19 H2         21.1253   27.1733   34.5846 H         1 NDF         0.0599
     20 H3         23.0365   25.6353   34.3200 H         1 NDF         0.0559
     21 H4         22.9579   23.8417   32.6003 H         1 NDF         0.0599
     22 H5         20.9695   23.5960   31.1601 H         1 NDF         0.0557
     23 H6         17.7990   25.4516   31.7351 H         1 NDF         0.0467
     24 H7         18.5462   24.0172   30.9534 H         1 NDF         0.0467
     25 H8         18.9232   26.9338   30.0833 H         1 NDF         0.0751
     26 H9         19.9349   24.4541   28.7293 H         1 NDF         0.1890
@<TRIPOS>BOND
     1    1    2 ar 
     2    1    6 ar 
     3    2    3 ar 
     4    3    4 ar 
     5    4    5 ar 
     6    5    6 ar 
     7    6    7 1  
     8    7    8 1  
     9    8    9 1  
    10    8   12 1  
    11    9   10 ar 
    12    9   11 ar 
    13   12   13 am 
    14   13   14 2  
    15   13   15 1  
    16   15   16 ar 
    17   15   17 ar 
    18    1   18 1  
    19    2   19 1  
    20    3   20 1  
    21    4   21 1  
    22    5   22 1  
    23    7   23 1  
    24    7   24 1  
    25    8   25 1  
    26   12   26 1  
@<TRIPOS>SUBSTRUCTURE
     1 NDF         1

