### 
### Created by X-TOOL on Mon Sep 10 21:12:53 2018
### 

@<TRIPOS>MOLECULE
1ycm_ligand
   39    39     1     0     0
SMALL
GAST_HUCK


@<TRIPOS>ATOM
      1 C1          7.8980   -3.9230   -5.4320 C.ar      1 NGH        -0.0440
      2 C2          7.5570   -3.7510   -4.0960 C.ar      1 NGH        -0.0313
      3 C3          6.6090   -4.6000   -3.5250 C.ar      1 NGH         0.0908
      4 C4          6.0070   -5.6080   -4.2910 C.ar      1 NGH        -0.0313
      5 C5          6.3670   -5.7530   -5.6170 C.ar      1 NGH        -0.0440
      6 C6          7.3140   -4.9200   -6.2070 C.ar      1 NGH         0.0973
      7 O1          6.1890   -4.5710   -2.2100 O.3       1 NGH        -0.3212
      8 C7          7.0180   -3.9180   -1.2830 C.3       1 NGH         0.0594
      9 S1          7.7690   -5.1730   -7.9240 S.o2      1 NGH         0.0677
     10 O2          9.2510   -5.2270   -7.9960 O.2       1 NGH        -0.1514
     11 O3          7.0610   -6.3650   -8.4390 O.2       1 NGH        -0.1514
     12 N           7.1650   -3.6930   -8.6770 N.am      1 NGH        -0.2153
     13 C9          7.9750   -2.8610   -9.6070 C.3       1 NGH         0.0344
     14 C10         5.8480   -3.1140   -8.2430 C.3       1 NGH         0.1327
     15 C11         6.0170   -2.0150   -7.2360 C.2       1 NGH         0.3059
     16 N1          5.0120   -1.4590   -6.5700 N.2       1 NGH         0.0367
     17 O4          5.0660   -0.4410   -5.7650 O.2       1 NGH        -0.1732
     18 O5          7.1990   -1.5390   -7.0930 O.2       1 NGH        -0.3264
     19 C12         8.4070   -3.6060  -10.8780 C.3       1 NGH        -0.0294
     20 C13         9.8510   -4.0690  -10.7930 C.3       1 NGH        -0.0612
     21 C14         8.2360   -2.6630  -12.0600 C.3       1 NGH        -0.0612
     22 H1          8.6349   -3.2663   -5.8801 H         1 NGH         0.0608
     23 H2          8.0208   -2.9686   -3.5063 H         1 NGH         0.0542
     24 H3          5.2679   -6.2658   -3.8482 H         1 NGH         0.0542
     25 H4          5.9023   -6.5319   -6.2107 H         1 NGH         0.0608
     26 H5          6.5633   -3.9720   -0.2828 H         1 NGH         0.0577
     27 H6          7.1364   -2.8643   -1.5755 H         1 NGH         0.0577
     28 H7          8.0034   -4.4064   -1.2646 H         1 NGH         0.0577
     29 H8          8.8782   -2.5251   -9.0766 H         1 NGH         0.0482
     30 H9          7.3767   -1.9865   -9.9026 H         1 NGH         0.0482
     31 H10         5.2394   -3.9138   -7.7958 H         1 NGH         0.0730
     32 H11         5.3307   -2.7095   -9.1255 H         1 NGH         0.0730
     33 H12         7.7615   -4.4860  -11.0156 H         1 NGH         0.0311
     34 H13        10.1220   -4.5967  -11.7193 H         1 NGH         0.0233
     35 H14         9.9683   -4.7487   -9.9361 H         1 NGH         0.0233
     36 H15        10.5086   -3.1970  -10.6621 H         1 NGH         0.0233
     37 H16         7.1886   -2.3315  -12.1160 H         1 NGH         0.0233
     38 H17         8.5048   -3.1870  -12.9890 H         1 NGH         0.0233
     39 H18         8.8908   -1.7888  -11.9294 H         1 NGH         0.0233
@<TRIPOS>BOND
     1    1    2 ar 
     2    1    6 ar 
     3    1   22 1  
     4    2    3 ar 
     5    2   23 1  
     6    3    4 ar 
     7    3    7 1  
     8    4    5 ar 
     9    4   24 1  
    10    5    6 ar 
    11    5   25 1  
    12    6    9 1  
    13    7    8 1  
    14    8   26 1  
    15    8   27 1  
    16    8   28 1  
    17    9   10 2  
    18    9   11 2  
    19    9   12 am 
    20   12   13 1  
    21   12   14 1  
    22   13   19 1  
    23   13   29 1  
    24   13   30 1  
    25   14   15 1  
    26   14   31 1  
    27   14   32 1  
    28   15   16 1  
    29   15   18 2  
    30   16   17 2  
    31   19   33 1  
    32   19   20 1  
    33   19   21 1  
    34   20   34 1  
    35   20   35 1  
    36   20   36 1  
    37   21   37 1  
    38   21   38 1  
    39   21   39 1  
@<TRIPOS>SUBSTRUCTURE
     1 NGH         1

