### 
### Created by X-TOOL on Mon Sep 10 21:12:45 2018
### 

@<TRIPOS>MOLECULE
1yda_ligand
   19    19     1     0     0
SMALL
GAST_HUCK


@<TRIPOS>ATOM
      1 C1         -5.1930    2.4560   16.1520 C.2       1 AZM         0.2562
      2 C2         -4.6390    4.3570   15.0410 C.2       1 AZM         0.2252
      3 C3         -5.4520    6.0000   13.6430 C.2       1 AZM         0.2120
      4 C4         -5.1420    7.1880   12.7350 C.3       1 AZM         0.0337
      5 N1         -4.6350   -0.1330   16.8470 N.am      1 AZM        -0.2565
      6 N2         -3.5780    3.8380   15.5520 N.2       1 AZM        -0.2573
      7 N3         -3.9150    2.6890   16.2150 N.2       1 AZM        -0.2476
      8 N4         -4.4210    5.3940   14.2730 N.am      1 AZM        -0.1925
      9 O1         -5.8720    1.3760   18.2830 O.2       1 AZM        -0.1452
     10 O2         -7.2330    0.5160   16.8020 O.2       1 AZM        -0.1452
     11 O3         -6.6270    5.6470   13.7460 O.2       1 AZM        -0.3804
     12 S1         -5.8120    0.9610   16.8820 S.o2      1 AZM         0.0991
     13 S2         -6.1380    3.5870   15.3270 S.3       1 AZM         0.0874
     14 H1         -6.0768    7.5695   12.2983 H         1 AZM         0.0474
     15 H2         -4.4652    6.8670   11.9294 H         1 AZM         0.0474
     16 H3         -4.6608    7.9833   13.3231 H         1 AZM         0.0474
     17 H4         -4.7924   -1.0487   17.2167 H         1 AZM         0.1638
     18 H5         -3.7453    0.1021   16.4555 H         1 AZM         0.1638
     19 H6         -3.4901    5.7386   14.1520 H         1 AZM         0.2411
@<TRIPOS>BOND
     1    1   13 1  
     2    1   12 1  
     3    1    7 2  
     4    7    6 1  
     5    6    2 2  
     6    2    8 am 
     7    2   13 1  
     8    8    3 am 
     9    3   11 2  
    10    3    4 1  
    11   12    5 am 
    12   12    9 2  
    13   12   10 2  
    14    4   14 1  
    15    4   15 1  
    16    4   16 1  
    17    5   17 1  
    18    5   18 1  
    19    8   19 1  
@<TRIPOS>SUBSTRUCTURE
     1 AZM         1

