### 
### Created by X-TOOL on Mon Sep 10 21:12:45 2018
### 

@<TRIPOS>MOLECULE
1ydb_ligand
   19    19     1     0     0
SMALL
GAST_HUCK


@<TRIPOS>ATOM
      1 C1         -5.0120    2.2110   16.1310 C.2       1 AZM         0.2562
      2 C2         -4.4160    4.0180   14.9440 C.2       1 AZM         0.2252
      3 C3         -5.1680    5.7640   13.6410 C.2       1 AZM         0.2120
      4 C4         -4.6670    6.9100   12.7870 C.3       1 AZM         0.0337
      5 N1         -5.0980   -0.4120   16.2950 N.am      1 AZM        -0.2565
      6 N2         -3.3660    3.4000   15.3680 N.2       1 AZM        -0.2573
      7 N3         -3.7160    2.3010   16.0840 N.2       1 AZM        -0.2476
      8 N4         -4.1580    5.0620   14.1790 N.am      1 AZM        -0.1925
      9 O1         -5.4430    0.9180   18.4030 O.2       1 AZM        -0.1452
     10 O2         -7.2490    0.9930   16.8390 O.2       1 AZM        -0.1452
     11 O3         -6.3740    5.5610   13.7610 O.2       1 AZM        -0.3804
     12 S1         -5.7750    0.8600   16.9770 S.o2      1 AZM         0.0991
     13 S2         -5.9310    3.4180   15.3460 S.3       1 AZM         0.0874
     14 H1         -5.5244    7.4566   12.3673 H         1 AZM         0.0474
     15 H2         -4.0483    6.5140   11.9682 H         1 AZM         0.0474
     16 H3         -4.0645    7.5918   13.4051 H         1 AZM         0.0474
     17 H4         -5.3528   -1.3327   16.5906 H         1 AZM         0.1638
     18 H5         -4.4185   -0.2892   15.5716 H         1 AZM         0.1638
     19 H6         -3.2113    5.3299   14.0003 H         1 AZM         0.2411
@<TRIPOS>BOND
     1    1   13 1  
     2    1   12 1  
     3    1    7 2  
     4    7    6 1  
     5    6    2 2  
     6    2    8 am 
     7    2   13 1  
     8    8    3 am 
     9    3   11 2  
    10    3    4 1  
    11   12    5 am 
    12   12    9 2  
    13   12   10 2  
    14    4   14 1  
    15    4   15 1  
    16    4   16 1  
    17    5   17 1  
    18    5   18 1  
    19    8   19 1  
@<TRIPOS>SUBSTRUCTURE
     1 AZM         1

