### 
### Created by X-TOOL on Mon Sep 10 21:12:45 2018
### 

@<TRIPOS>MOLECULE
1ydd_ligand
   19    19     1     0     0
SMALL
GAST_HUCK


@<TRIPOS>ATOM
      1 C1         -5.4570    2.0850   15.5410 C.2       1 AZM         0.2562
      2 C2         -4.9860    3.7530   14.0580 C.2       1 AZM         0.2252
      3 C3         -5.6310    5.9630   13.4220 C.2       1 AZM         0.2120
      4 C4         -5.2880    7.0470   12.4330 C.3       1 AZM         0.0337
      5 N1         -5.8790   -0.4590   16.1770 N.am      1 AZM        -0.2565
      6 N2         -4.2470    2.7520   13.8460 N.2       1 AZM        -0.2573
      7 N3         -4.4860    1.7510   14.7640 N.2       1 AZM        -0.2476
      8 N4         -4.8680    4.8790   13.2810 N.am      1 AZM        -0.1925
      9 O1         -5.0400    1.0010   17.8730 O.2       1 AZM        -0.1452
     10 O2         -7.4050    1.3340   16.9540 O.2       1 AZM        -0.1452
     11 O3         -6.4680    6.0050   14.3400 O.2       1 AZM        -0.3804
     12 S1         -6.0020    0.9590   16.8130 S.o2      1 AZM         0.0991
     13 S2         -6.1280    3.6700   15.3290 S.3       1 AZM         0.0874
     14 H1         -5.9463    7.9132   12.5954 H         1 AZM         0.0474
     15 H2         -5.4271    6.6674   11.4100 H         1 AZM         0.0474
     16 H3         -4.2402    7.3518   12.5717 H         1 AZM         0.0474
     17 H4         -6.1318   -1.2684   16.7071 H         1 AZM         0.1638
     18 H5         -5.5473   -0.5592   15.2389 H         1 AZM         0.1638
     19 H6         -4.1680    4.8863   12.5669 H         1 AZM         0.2411
@<TRIPOS>BOND
     1    1   13 1  
     2    1   12 1  
     3    1    7 2  
     4    7    6 1  
     5    6    2 2  
     6    2    8 am 
     7    2   13 1  
     8    8    3 am 
     9    3   11 2  
    10    3    4 1  
    11   12    5 am 
    12   12    9 2  
    13   12   10 2  
    14    4   14 1  
    15    4   15 1  
    16    4   16 1  
    17    5   17 1  
    18    5   18 1  
    19    8   19 1  
@<TRIPOS>SUBSTRUCTURE
     1 AZM         1

