### 
### Created by X-TOOL on Mon Sep 10 21:12:46 2018
### 

@<TRIPOS>MOLECULE
1yds_ligand
   34    35     1     0     0
SMALL
GAST_HUCK


@<TRIPOS>ATOM
      1 C1          6.9860   10.1780    2.9890 C.ar      1 IQS         0.1234
      2 C2          7.1340   10.1760    1.5900 C.ar      1 IQS        -0.0287
      3 C3          6.0160   10.0210    0.7520 C.ar      1 IQS        -0.0534
      4 C4          4.7310    9.8660    1.2740 C.ar      1 IQS        -0.0451
      5 C5          4.5640    9.8650    2.6710 C.ar      1 IQS         0.0110
      6 C6          3.2910    9.7100    3.2190 C.ar      1 IQS         0.0199
      7 N7          3.1280    9.7070    4.5750 N.ar      1 IQS        -0.2974
      8 C8          4.1840    9.8510    5.3990 C.ar      1 IQS         0.0077
      9 C9          5.4830   10.0090    4.9180 C.ar      1 IQS        -0.0294
     10 C10         5.6870   10.0190    3.5340 C.ar      1 IQS         0.0243
     11 S           8.4470   10.3740    3.9930 S.o2      1 IQS         0.0706
     12 O1          8.1500   11.4220    4.9350 O.2       1 IQS        -0.1500
     13 O2          9.5850   10.4810    3.1000 O.2       1 IQS        -0.1500
     14 N1'         8.4810    9.0070    4.8510 N.am      1 IQS        -0.2421
     15 C2'         9.0040    7.7420    4.3380 C.3       1 IQS         0.0665
     16 C3'         9.9790    7.9390    3.1780 C.3       1 IQS        -0.0167
     17 N4'        11.1750    7.0990    3.3810 N.4       1 IQS         0.2259
     18 C5'        12.3100    7.9960    3.6460 C.3       1 IQS        -0.0448
     19 H1          8.1193   10.2951    1.1541 H         1 IQS         0.0675
     20 H2          6.1550   10.0219   -0.3231 H         1 IQS         0.0645
     21 H3          3.8778    9.7486    0.6157 H         1 IQS         0.0659
     22 H4          2.4315    9.5920    2.5691 H         1 IQS         0.0870
     23 H5          4.0184    9.8438    6.4703 H         1 IQS         0.0775
     24 H6          6.3168   10.1216    5.6015 H         1 IQS         0.0716
     25 H7          8.1246    9.0266    5.7851 H         1 IQS         0.1675
     26 H8          8.1610    7.1272    3.9896 H         1 IQS         0.0528
     27 H9          9.5265    7.2199    5.1531 H         1 IQS         0.0528
     28 H10        10.2794    8.9960    3.1292 H         1 IQS         0.0830
     29 H11         9.4881    7.6534    2.2360 H         1 IQS         0.0830
     30 H12        11.3552    6.5522    2.5536 H         1 IQS         0.2011
     31 H13        11.0331    6.4833    4.1664 H         1 IQS         0.2011
     32 H14        13.2205    7.3989    3.8023 H         1 IQS         0.0777
     33 H15        12.1035    8.5924    4.5469 H         1 IQS         0.0777
     34 H16        12.4550    8.6676    2.7870 H         1 IQS         0.0777
@<TRIPOS>BOND
     1    1   11 1  
     2    1   10 ar 
     3    1    2 ar 
     4    2    3 ar 
     5    3    4 ar 
     6    4    5 ar 
     7    5   10 ar 
     8    5    6 ar 
     9    6    7 ar 
    10    7    8 ar 
    11    8    9 ar 
    12    9   10 ar 
    13   11   14 am 
    14   11   13 2  
    15   11   12 2  
    16   14   15 1  
    17   15   16 1  
    18   16   17 1  
    19   17   18 1  
    20    2   19 1  
    21    3   20 1  
    22    4   21 1  
    23    6   22 1  
    24    8   23 1  
    25    9   24 1  
    26   14   25 1  
    27   15   26 1  
    28   15   27 1  
    29   16   28 1  
    30   16   29 1  
    31   17   30 1  
    32   17   31 1  
    33   18   32 1  
    34   18   33 1  
    35   18   34 1  
@<TRIPOS>SUBSTRUCTURE
     1 IQS         1

