### 
### Created by X-TOOL on Mon Sep 10 21:12:46 2018
### 

@<TRIPOS>MOLECULE
1ydt_ligand
   48    50     1     0     0
SMALL
GAST_HUCK


@<TRIPOS>ATOM
      1 C1          6.9040   10.2450    2.8280 C.ar      1 IQB         0.1234
      2 C2          7.0150   10.2910    1.4300 C.ar      1 IQB        -0.0287
      3 C3          5.8710   10.2380    0.6260 C.ar      1 IQB        -0.0534
      4 C4          4.6000   10.1420    1.2050 C.ar      1 IQB        -0.0451
      5 C5          4.4810   10.0960    2.5980 C.ar      1 IQB         0.0110
      6 C6          3.2200   10.0000    3.1920 C.ar      1 IQB         0.0199
      7 N7          3.1000    9.9540    4.5420 N.ar      1 IQB        -0.2974
      8 C8          4.1820   10.0000    5.3550 C.ar      1 IQB         0.0077
      9 C9          5.4670   10.0980    4.8070 C.ar      1 IQB        -0.0294
     10 C10         5.6280   10.1480    3.4140 C.ar      1 IQB         0.0243
     11 S           8.3850   10.3200    3.8070 S.o2      1 IQB         0.0706
     12 O1          8.1680   11.2390    4.8980 O.2       1 IQB        -0.1500
     13 O2          9.5150   10.5330    2.9260 O.2       1 IQB        -0.1500
     14 N1'         8.4220    8.8250    4.4030 N.am      1 IQB        -0.2421
     15 C2'         8.8740    7.7060    3.5960 C.3       1 IQB         0.0665
     16 C3'        10.1930    8.0520    2.8860 C.3       1 IQB        -0.0146
     17 N4'        11.2740    7.1790    3.3600 N.4       1 IQB         0.2435
     18 C5'        12.4220    7.9960    3.7960 C.3       1 IQB        -0.0007
     19 C6'        12.8320    8.9590    2.7140 C.2       1 IQB        -0.0278
     20 C7'        12.8310   10.2810    2.9320 C.2       1 IQB        -0.0597
     21 C1'        13.2360   11.2610    1.8630 C.ar      1 IQB        -0.0385
     22 C2'        14.0680   10.8820    0.7990 C.ar      1 IQB        -0.0596
     23 C3'        14.4270   11.8150   -0.1830 C.ar      1 IQB        -0.0574
     24 C4'        13.9540   13.1310   -0.1000 C.ar      1 IQB         0.0076
     25 BR4'       14.4220   14.3880   -1.3880 Br        1 IQB        -0.0541
     26 C5'        13.1280   13.5110    0.9560 C.ar      1 IQB        -0.0574
     27 C6'        12.7720   12.5760    1.9320 C.ar      1 IQB        -0.0596
     28 H1          7.9934   10.3681    0.9698 H         1 IQB         0.0675
     29 H2          5.9696   10.2715   -0.4530 H         1 IQB         0.0645
     30 H3          3.7157   10.1036    0.5792 H         1 IQB         0.0659
     31 H4          2.3328    9.9621    2.5703 H         1 IQB         0.0870
     32 H5          4.0534    9.9609    6.4306 H         1 IQB         0.0775
     33 H6          6.3341   10.1351    5.4565 H         1 IQB         0.0716
     34 H7          8.1286    8.6643    5.3454 H         1 IQB         0.1675
     35 H8          8.1082    7.4706    2.8423 H         1 IQB         0.0528
     36 H9          9.0308    6.8317    4.2449 H         1 IQB         0.0528
     37 H10        10.4543    9.0995    3.0971 H         1 IQB         0.0830
     38 H11        10.0672    7.9168    1.8016 H         1 IQB         0.0830
     39 H12        11.5630    6.5682    2.6121 H         1 IQB         0.2033
     40 H13        10.9425    6.6270    4.1356 H         1 IQB         0.2033
     41 H14        13.2686    7.3336    4.0294 H         1 IQB         0.1025
     42 H15        12.1408    8.5626    4.6959 H         1 IQB         0.1025
     43 H16        13.1337    8.5757    1.7403 H         1 IQB         0.0803
     44 H17        12.5292   10.6568    3.9085 H         1 IQB         0.0436
     45 H18        14.4345    9.8638    0.7362 H         1 IQB         0.0584
     46 H19        15.0691   11.5192   -1.0048 H         1 IQB         0.0629
     47 H20        12.7624   14.5295    1.0204 H         1 IQB         0.0629
     48 H21        12.1286   12.8751    2.7515 H         1 IQB         0.0584
@<TRIPOS>BOND
     1    1   11 1  
     2    1   10 ar 
     3    1    2 ar 
     4    2    3 ar 
     5    3    4 ar 
     6    4    5 ar 
     7    5   10 ar 
     8    5    6 ar 
     9    6    7 ar 
    10    7    8 ar 
    11    8    9 ar 
    12    9   10 ar 
    13   11   14 am 
    14   11   13 2  
    15   11   12 2  
    16   14   15 1  
    17   15   16 1  
    18   16   17 1  
    19   17   18 1  
    20   18   19 1  
    21   19   20 2  
    22   20   21 1  
    23   21   27 ar 
    24   21   22 ar 
    25   22   23 ar 
    26   23   24 ar 
    27   24   26 ar 
    28   24   25 1  
    29   26   27 ar 
    30    2   28 1  
    31    3   29 1  
    32    4   30 1  
    33    6   31 1  
    34    8   32 1  
    35    9   33 1  
    36   14   34 1  
    37   15   35 1  
    38   15   36 1  
    39   16   37 1  
    40   16   38 1  
    41   17   39 1  
    42   17   40 1  
    43   18   41 1  
    44   18   42 1  
    45   19   43 1  
    46   20   44 1  
    47   22   45 1  
    48   23   46 1  
    49   26   47 1  
    50   27   48 1  
@<TRIPOS>SUBSTRUCTURE
     1 IQB         1

