### 
### Created by X-TOOL on Mon Sep 10 21:12:46 2018
### 

@<TRIPOS>MOLECULE
1yet_ligand
   80    81     1     0     0
SMALL
GAST_HUCK


@<TRIPOS>ATOM
      1 O1         38.4350  -50.9890   68.1470 O.2       1 GDM        -0.3753
      2 O2         37.5890  -47.3870   62.6380 O.3       1 GDM        -0.3598
      3 O3         37.9680  -44.7170   63.2480 O.3       1 GDM        -0.2436
      4 O4         38.9370  -43.2560   61.7630 O.2       1 GDM        -0.3776
      5 O5         44.9430  -43.4780   64.4210 O.3       1 GDM        -0.3877
      6 O6         45.4050  -46.2650   63.7580 O.3       1 GDM        -0.3771
      7 O7         43.2450  -44.8190   68.5200 O.3       1 GDM        -0.3151
      8 O8         40.6420  -44.5160   69.2530 O.2       1 GDM        -0.3865
      9 O9         42.1120  -49.4480   68.1200 O.2       1 GDM        -0.3575
     10 N1         39.5890  -49.1610   68.8170 N.am      1 GDM        -0.2158
     11 N2         36.7290  -43.1860   62.2470 N.am      1 GDM        -0.2762
     12 C1         39.2170  -50.1180   67.8480 C.2       1 GDM         0.2316
     13 C2         39.8780  -50.0730   66.5040 C.2       1 GDM         0.0245
     14 C3         39.7130  -48.9800   65.7140 C.2       1 GDM        -0.0656
     15 C4         40.2930  -48.7990   64.3870 C.2       1 GDM        -0.0729
     16 C5         39.8560  -47.9390   63.4440 C.2       1 GDM        -0.0424
     17 C6         38.7090  -46.9950   63.5290 C.3       1 GDM         0.1288
     18 C7         39.1110  -45.5010   63.1470 C.3       1 GDM         0.1504
     19 C8         40.2740  -44.8800   64.1120 C.2       1 GDM        -0.0457
     20 C9         41.4060  -44.4320   63.5920 C.2       1 GDM        -0.1006
     21 C10        42.5670  -43.7870   64.2880 C.3       1 GDM        -0.0094
     22 C11        43.9320  -44.3370   63.8430 C.3       1 GDM         0.0868
     23 C12        44.1430  -45.7890   64.2740 C.3       1 GDM         0.0859
     24 C13        44.1980  -45.9760   65.7870 C.3       1 GDM        -0.0200
     25 C14        44.3630  -47.4320   66.2830 C.3       1 GDM        -0.0344
     26 C15        44.1620  -47.5820   67.8310 C.3       1 GDM        -0.0163
     27 C16        42.7820  -47.1900   68.2720 C.2       1 GDM         0.0496
     28 C17        42.3590  -45.9580   68.5760 C.2       1 GDM         0.1484
     29 C18        40.9730  -45.6670   68.9870 C.2       1 GDM         0.1522
     30 C19        40.0010  -46.7620   69.0660 C.2       1 GDM         0.0078
     31 C20        40.3710  -48.0090   68.7820 C.2       1 GDM         0.1367
     32 C21        41.7830  -48.2910   68.3730 C.2       1 GDM         0.1905
     33 C22        40.6640  -51.2890   66.1240 C.3       1 GDM        -0.0273
     34 C23        37.8540  -48.5360   61.7580 C.3       1 GDM         0.0406
     35 C24        37.9700  -43.6720   62.3560 C.2       1 GDM         0.3194
     36 C25        39.9400  -44.8150   65.6040 C.3       1 GDM        -0.0373
     37 C26        42.4790  -42.2760   63.9780 C.3       1 GDM        -0.0567
     38 C27        45.4000  -46.4540   62.3080 C.3       1 GDM         0.0369
     39 C28        43.4520  -48.3420   65.5110 C.3       1 GDM        -0.0609
     40 C29        44.6220  -44.8250   68.9240 C.3       1 GDM         0.0602
     41 H1         45.8040  -43.7885   64.1664 H         1 GDM         0.2101
     42 H2         39.2097  -49.3510   69.7226 H         1 GDM         0.2392
     43 H3         36.5454  -42.4163   61.6356 H         1 GDM         0.1831
     44 H4         35.9846  -43.5923   62.7769 H         1 GDM         0.1831
     45 H5         39.0964  -48.1713   66.1035 H         1 GDM         0.0539
     46 H6         41.1562  -49.4135   64.1355 H         1 GDM         0.0436
     47 H7         40.4101  -47.9352   62.5065 H         1 GDM         0.0741
     48 H8         38.3497  -47.0046   64.5686 H         1 GDM         0.0852
     49 H9         39.4760  -45.4878   62.1094 H         1 GDM         0.0853
     50 H10        41.5077  -44.5474   62.5139 H         1 GDM         0.0247
     51 H11        42.4677  -43.9483   65.3715 H         1 GDM         0.0398
     52 H12        43.9973  -44.2897   62.7460 H         1 GDM         0.0637
     53 H13        43.3202  -46.3954   63.8676 H         1 GDM         0.0623
     54 H14        43.2628  -45.5801   66.2096 H         1 GDM         0.0295
     55 H15        45.0487  -45.3919   66.1680 H         1 GDM         0.0295
     56 H16        45.3973  -47.7359   66.0643 H         1 GDM         0.0317
     57 H17        44.8923  -46.9401   68.3454 H         1 GDM         0.0392
     58 H18        44.3363  -48.6318   68.1093 H         1 GDM         0.0392
     59 H19        38.9726  -46.5545   69.3581 H         1 GDM         0.0327
     60 H20        40.6323  -52.0180   66.9471 H         1 GDM         0.0384
     61 H21        41.7079  -51.0040   65.9267 H         1 GDM         0.0384
     62 H22        40.2293  -51.7386   65.2191 H         1 GDM         0.0384
     63 H23        36.9644  -48.7405   61.1442 H         1 GDM         0.0527
     64 H24        38.0886  -49.4198   62.3695 H         1 GDM         0.0527
     65 H25        38.7070  -48.3067   61.1024 H         1 GDM         0.0527
     66 H26        40.7904  -44.3826   66.1516 H         1 GDM         0.0376
     67 H27        39.7397  -45.8293   65.9795 H         1 GDM         0.0376
     68 H28        39.0499  -44.1862   65.7535 H         1 GDM         0.0376
     69 H29        41.4996  -41.8921   64.2997 H         1 GDM         0.0247
     70 H30        42.5981  -42.1161   62.8962 H         1 GDM         0.0247
     71 H31        43.2765  -41.7440   64.5173 H         1 GDM         0.0247
     72 H32        46.3863  -46.8159   61.9820 H         1 GDM         0.0524
     73 H33        45.1793  -45.4962   61.8141 H         1 GDM         0.0524
     74 H34        44.6308  -47.1921   62.0371 H         1 GDM         0.0524
     75 H35        43.6248  -48.2056   64.4333 H         1 GDM         0.0234
     76 H36        42.4054  -48.1003   65.7480 H         1 GDM         0.0234
     77 H37        43.6584  -49.3869   65.7860 H         1 GDM         0.0234
     78 H38        45.0527  -43.8241   68.7732 H         1 GDM         0.0581
     79 H39        45.1779  -45.5580   68.3210 H         1 GDM         0.0581
     80 H40        44.6909  -45.0973   69.9875 H         1 GDM         0.0581
@<TRIPOS>BOND
     1   12    1 2  
     2   17    2 1  
     3    2   34 1  
     4   18    3 1  
     5    3   35 1  
     6   35    4 2  
     7   22    5 1  
     8   23    6 1  
     9    6   38 1  
    10   28    7 1  
    11    7   40 1  
    12   29    8 2  
    13   32    9 2  
    14   12   10 am 
    15   10   31 1  
    16   35   11 am 
    17   13   12 1  
    18   14   13 2  
    19   13   33 1  
    20   15   14 1  
    21   16   15 2  
    22   17   16 1  
    23   18   17 1  
    24   19   18 1  
    25   20   19 2  
    26   19   36 1  
    27   21   20 1  
    28   22   21 1  
    29   21   37 1  
    30   23   22 1  
    31   24   23 1  
    32   25   24 1  
    33   26   25 1  
    34   25   39 1  
    35   27   26 1  
    36   28   27 2  
    37   27   32 1  
    38   28   29 1  
    39   29   30 1  
    40   30   31 2  
    41   31   32 1  
    42    5   41 1  
    43   10   42 1  
    44   11   43 1  
    45   11   44 1  
    46   14   45 1  
    47   15   46 1  
    48   16   47 1  
    49   17   48 1  
    50   18   49 1  
    51   20   50 1  
    52   21   51 1  
    53   22   52 1  
    54   23   53 1  
    55   24   54 1  
    56   24   55 1  
    57   25   56 1  
    58   26   57 1  
    59   26   58 1  
    60   30   59 1  
    61   33   60 1  
    62   33   61 1  
    63   33   62 1  
    64   34   63 1  
    65   34   64 1  
    66   34   65 1  
    67   36   66 1  
    68   36   67 1  
    69   36   68 1  
    70   37   69 1  
    71   37   70 1  
    72   37   71 1  
    73   38   72 1  
    74   38   73 1  
    75   38   74 1  
    76   39   75 1  
    77   39   76 1  
    78   39   77 1  
    79   40   78 1  
    80   40   79 1  
    81   40   80 1  
@<TRIPOS>SUBSTRUCTURE
     1 GDM         1

