### 
### Created by X-TOOL on Mon Sep 10 21:12:53 2018
### 

@<TRIPOS>MOLECULE
1yhs_ligand
   62    69     1     0     0
SMALL
GAST_HUCK


@<TRIPOS>ATOM
      1 C1        -17.1900   35.0480    1.5810 C.ar      1 STU        -0.0696
      2 C2        -16.2100   33.9720    1.4150 C.ar      1 STU        -0.0759
      3 C3        -15.8490   33.4570    0.0910 C.ar      1 STU        -0.0739
      4 C4        -16.4820   34.0080   -1.1110 C.ar      1 STU        -0.0408
      5 C5        -17.4740   35.0930   -0.9550 C.ar      1 STU         0.0695
      6 N6        -18.2290   35.7970   -1.9440 N.pl3     1 STU        -0.2292
      7 C7        -18.9440   36.7940   -1.2360 C.ar      1 STU         0.0978
      8 C8        -19.8090   37.8480   -1.7900 C.ar      1 STU         0.0952
      9 N9        -20.0550   38.1300   -3.1300 N.pl3     1 STU        -0.2376
     10 C10       -20.9280   39.2780   -3.1940 C.ar      1 STU         0.0681
     11 C11       -21.5190   39.9870   -4.3630 C.ar      1 STU        -0.0404
     12 C12       -22.4160   41.1410   -4.1280 C.ar      1 STU        -0.0732
     13 C13       -22.7190   41.5830   -2.7470 C.ar      1 STU        -0.0750
     14 C14       -22.1230   40.8720   -1.5800 C.ar      1 STU        -0.0685
     15 C15       -21.2300   39.7230   -1.8260 C.ar      1 STU        -0.0072
     16 C16       -20.5160   38.7810   -0.9270 C.ar      1 STU        -0.0018
     17 C17       -20.3280   38.6580    0.5320 C.ar      1 STU         0.0320
     18 C18       -20.8350   39.4820    1.6050 C.2       1 STU         0.1871
     19 N19       -20.2620   39.0860    2.7680 N.am      1 STU        -0.2790
     20 C20       -19.4500   37.8590    2.6070 C.3       1 STU         0.0603
     21 C21       -19.4710   37.6630    1.1090 C.ar      1 STU        -0.0168
     22 C22       -18.7700   36.7070    0.2050 C.ar      1 STU         0.0011
     23 C23       -17.8100   35.6060    0.3860 C.ar      1 STU        -0.0075
     24 C24       -18.3010   35.4770   -3.4590 C.3       1 STU         0.2020
     25 C25       -16.9360   35.8110   -4.2280 C.3       1 STU         0.1556
     26 C26       -17.1120   37.0040   -5.2070 C.3       1 STU         0.0141
     27 C27       -17.9710   38.0830   -4.5450 C.3       1 STU         0.0455
     28 C28       -19.3950   37.5300   -4.2450 C.3       1 STU         0.1668
     29 O29       -19.4280   36.1510   -4.0800 O.3       1 STU        -0.3149
     30 O30       -21.6510   40.3890    1.4550 O.2       1 STU        -0.3964
     31 N31       -15.8810   37.6390   -5.7070 N.4       1 STU         0.2291
     32 C32       -15.3380   36.6840   -6.6890 C.3       1 STU        -0.0445
     33 O33       -15.9350   36.1960   -3.2830 O.3       1 STU        -0.3686
     34 C34       -14.6700   35.5240   -3.4470 C.3       1 STU         0.0373
     35 C35       -18.6330   33.9860   -3.7300 C.3       1 STU        -0.0059
     36 H1        -17.4472   35.4193    2.5664 H         1 STU         0.0566
     37 H2        -15.7397   33.5457    2.2938 H         1 STU         0.0516
     38 H3        -15.1123   32.6670    0.0005 H         1 STU         0.0561
     39 H4        -16.2280   33.6278   -2.0938 H         1 STU         0.0538
     40 H5        -21.2952   39.6622   -5.3727 H         1 STU         0.0539
     41 H6        -22.8531   41.6649   -4.9703 H         1 STU         0.0568
     42 H7        -23.3778   42.4282   -2.5840 H         1 STU         0.0516
     43 H8        -22.3418   41.1934   -0.5681 H         1 STU         0.0576
     44 H9        -20.3751   39.5684    3.6366 H         1 STU         0.1863
     45 H10       -19.9079   37.0054    3.1282 H         1 STU         0.0679
     46 H11       -18.4245   38.0070    2.9764 H         1 STU         0.0679
     47 H12       -16.6078   34.9204   -4.7840 H         1 STU         0.0710
     48 H13       -17.6527   36.6175   -6.0835 H         1 STU         0.0880
     49 H14       -18.0522   38.9475   -5.2203 H         1 STU         0.0372
     50 H15       -17.4975   38.3967   -3.6030 H         1 STU         0.0372
     51 H16       -19.9993   37.7634   -5.1340 H         1 STU         0.0933
     52 H17       -15.2263   37.7858   -4.9548 H         1 STU         0.2014
     53 H18       -16.0900   38.5212   -6.1476 H         1 STU         0.2014
     54 H19       -14.4071   37.0860   -7.1153 H         1 STU         0.0777
     55 H20       -16.0720   36.5278   -7.4932 H         1 STU         0.0777
     56 H21       -15.1294   35.7253   -6.1916 H         1 STU         0.0777
     57 H22       -13.9641   35.8796   -2.6820 H         1 STU         0.0524
     58 H23       -14.2666   35.7407   -4.4471 H         1 STU         0.0524
     59 H24       -14.8141   34.4391   -3.3369 H         1 STU         0.0524
     60 H25       -18.6726   33.8106   -4.8152 H         1 STU         0.0284
     61 H26       -19.6076   33.7402   -3.2831 H         1 STU         0.0284
     62 H27       -17.8542   33.3500   -3.2840 H         1 STU         0.0284
@<TRIPOS>BOND
     1    1    2 ar 
     2    1   23 ar 
     3    2    3 ar 
     4    3    4 ar 
     5    4    5 ar 
     6    5    6 1  
     7    5   23 ar 
     8    6    7 1  
     9    6   24 1  
    10    7    8 ar 
    11    7   22 ar 
    12    8    9 1  
    13    8   16 ar 
    14    9   10 1  
    15    9   28 1  
    16   10   11 ar 
    17   10   15 ar 
    18   11   12 ar 
    19   12   13 ar 
    20   13   14 ar 
    21   14   15 ar 
    22   15   16 1  
    23   16   17 ar 
    24   17   18 1  
    25   17   21 ar 
    26   18   19 am 
    27   18   30 2  
    28   19   20 1  
    29   20   21 1  
    30   21   22 ar 
    31   22   23 1  
    32   24   25 1  
    33   24   29 1  
    34   24   35 1  
    35   25   26 1  
    36   25   33 1  
    37   26   27 1  
    38   26   31 1  
    39   27   28 1  
    40   28   29 1  
    41   31   32 1  
    42   33   34 1  
    43    1   36 1  
    44    2   37 1  
    45    3   38 1  
    46    4   39 1  
    47   11   40 1  
    48   12   41 1  
    49   13   42 1  
    50   14   43 1  
    51   19   44 1  
    52   20   45 1  
    53   20   46 1  
    54   25   47 1  
    55   26   48 1  
    56   27   49 1  
    57   27   50 1  
    58   28   51 1  
    59   31   52 1  
    60   31   53 1  
    61   32   54 1  
    62   32   55 1  
    63   32   56 1  
    64   34   57 1  
    65   34   58 1  
    66   34   59 1  
    67   35   60 1  
    68   35   61 1  
    69   35   62 1  
@<TRIPOS>SUBSTRUCTURE
     1 STU         1

