### 
### Created by X-TOOL on Mon Sep 10 21:12:53 2018
### 

@<TRIPOS>MOLECULE
1yi3_ligand
   40    43     1     0     0
SMALL
GAST_HUCK


@<TRIPOS>ATOM
      1 N14       -18.4710   34.6380   -2.2930 N.pl3     1 LY2        -0.2584
      2 C15       -18.6950   35.6450   -3.3450 C.3       1 LY2         0.0607
      3 C19       -17.4860   33.6420   -2.7550 C.3       1 LY2         0.0607
      4 C11       -18.3620   35.2400   -0.9500 C.2       1 LY2         0.2138
      5 C16       -19.2090   34.9420   -4.6080 C.3       1 LY2         0.0689
      6 O17       -18.2620   33.9630   -5.0290 O.3       1 LY2        -0.3756
      7 C18       -18.0270   32.9740   -4.0290 C.3       1 LY2         0.0689
      8 C1        -19.5450   38.2140    2.9450 C.ar      1 LY2        -0.0650
      9 C2        -18.7110   37.0930    2.8240 C.ar      1 LY2        -0.0511
     10 C6        -20.2000   38.7310    1.8140 C.ar      1 LY2        -0.0555
     11 C3        -18.5580   36.4960    1.5620 C.ar      1 LY2         0.0550
     12 C4        -19.2240   37.0140    0.4420 C.ar      1 LY2         0.1607
     13 C9        -17.6820   35.3350    1.4010 C.2       1 LY2         0.0869
     14 C5        -20.0420   38.1380    0.5440 C.ar      1 LY2         0.0263
     15 O12       -19.0870   36.3760   -0.7780 O.3       1 LY2        -0.2039
     16 C20       -20.7120   38.7420   -0.6560 C.ar      1 LY2        -0.0190
     17 C25       -22.0450   39.2220   -0.5840 C.ar      1 LY2        -0.0564
     18 C24       -22.6590   39.7980   -1.7190 C.ar      1 LY2        -0.0628
     19 C21       -20.0040   38.8470   -1.8800 C.ar      1 LY2        -0.0564
     20 C22       -20.6130   39.4210   -3.0170 C.ar      1 LY2        -0.0628
     21 C23       -21.9410   39.8960   -2.9320 C.ar      1 LY2        -0.0632
     22 C10       -17.6430   34.7130    0.0630 C.2       1 LY2         0.0079
     23 O13       -16.9870   34.8340    2.2770 O.2       1 LY2        -0.4341
     24 H1        -17.7497   36.1609   -3.5690 H         1 LY2         0.0555
     25 H2        -19.4402   36.3776   -3.0016 H         1 LY2         0.0555
     26 H3        -17.3327   32.8823   -1.9744 H         1 LY2         0.0555
     27 H4        -16.5301   34.1400   -2.9747 H         1 LY2         0.0555
     28 H5        -19.3494   35.6834   -5.4083 H         1 LY2         0.0581
     29 H6        -20.1693   34.4522   -4.3893 H         1 LY2         0.0581
     30 H7        -18.9699   32.4566   -3.7982 H         1 LY2         0.0581
     31 H8        -17.2908   32.2462   -4.4008 H         1 LY2         0.0581
     32 H9        -19.6847   38.6825    3.9125 H         1 LY2         0.0553
     33 H10       -18.1936   36.6944    3.6892 H         1 LY2         0.0641
     34 H11       -20.8380   39.6010    1.9196 H         1 LY2         0.0631
     35 H12       -22.5956   39.1465    0.3467 H         1 LY2         0.0609
     36 H13       -23.6778   40.1636   -1.6592 H         1 LY2         0.0614
     37 H14       -18.9849   38.4829   -1.9434 H         1 LY2         0.0609
     38 H15       -20.0652   39.4968   -3.9493 H         1 LY2         0.0614
     39 H16       -22.4118   40.3382   -3.8025 H         1 LY2         0.0605
     40 H17       -17.0328   33.8271   -0.1070 H         1 LY2         0.0124
@<TRIPOS>BOND
     1    1    2 1  
     2    1    3 1  
     3    4    1 1  
     4    2    5 1  
     5    3    7 1  
     6   15    4 1  
     7    4   22 2  
     8    5    6 1  
     9    7    6 1  
    10    9    8 ar 
    11   10    8 ar 
    12   11    9 ar 
    13   14   10 ar 
    14   12   11 ar 
    15   11   13 1  
    16   12   14 ar 
    17   12   15 1  
    18   13   22 1  
    19   13   23 2  
    20   14   16 1  
    21   16   17 ar 
    22   16   19 ar 
    23   17   18 ar 
    24   18   21 ar 
    25   19   20 ar 
    26   20   21 ar 
    27    2   24 1  
    28    2   25 1  
    29    3   26 1  
    30    3   27 1  
    31    5   28 1  
    32    5   29 1  
    33    7   30 1  
    34    7   31 1  
    35    8   32 1  
    36    9   33 1  
    37   10   34 1  
    38   17   35 1  
    39   18   36 1  
    40   19   37 1  
    41   20   38 1  
    42   21   39 1  
    43   22   40 1  
@<TRIPOS>SUBSTRUCTURE
     1 LY2         1

