### 
### Created by X-TOOL on Mon Sep 10 21:12:52 2018
### 

@<TRIPOS>MOLECULE
1ykp_ligand
   16    16     1     0     0
SMALL
GAST_HUCK


@<TRIPOS>ATOM
      1 C1         24.7270   12.3130   35.9490 C.ar      1 DHB        -0.0099
      2 C2         24.9330   11.2080   35.1700 C.ar      1 DHB        -0.0276
      3 C3         24.4120    9.9820   35.5680 C.ar      1 DHB         0.1197
      4 O3         24.5840    8.8630   34.7860 O.3       1 DHB        -0.3362
      5 C4         23.7010    9.8770   36.7550 C.ar      1 DHB         0.1194
      6 O4         23.1680    8.6460   37.1340 O.3       1 DHB        -0.3347
      7 C5         23.5010   11.0060   37.5450 C.ar      1 DHB        -0.0375
      8 C6         24.0140   12.2150   37.1460 C.ar      1 DHB        -0.0674
      9 C          25.2720   13.5910   35.5410 C.2       1 DHB         0.0531
     10 O1         25.9050   13.6700   34.4770 O.co2     1 DHB        -0.5637
     11 O2         25.1140   14.6160   36.2490 O.co2     1 DHB        -0.5637
     12 H1         25.4986   11.2875   34.2486 H         1 DHB         0.0540
     13 H2         24.1677    8.1186   35.2044 H         1 DHB         0.2442
     14 H3         22.7142    8.7405   37.9632 H         1 DHB         0.2455
     15 H4         22.9426   10.9305   38.4711 H         1 DHB         0.0518
     16 H5         23.8655   13.0953   37.7610 H         1 DHB         0.0531
@<TRIPOS>BOND
     1    1    2 ar 
     2    1    8 ar 
     3    1    9 1  
     4    2    3 ar 
     5    3    4 1  
     6    3    5 ar 
     7    5    6 1  
     8    5    7 ar 
     9    7    8 ar 
    10    9   10 ar 
    11    9   11 ar 
    12    2   12 1  
    13    4   13 1  
    14    6   14 1  
    15    7   15 1  
    16    8   16 1  
@<TRIPOS>SUBSTRUCTURE
     1 DHB         1

