### 
### Created by X-TOOL on Mon Sep 10 21:12:55 2018
### 

@<TRIPOS>MOLECULE
1ykr_ligand
   44    47     1     0     0
SMALL
GAST_HUCK


@<TRIPOS>ATOM
      1 C1         -1.2410   31.4100    9.7620 C.2       1 628         0.0678
      2 C2         -0.5560   30.3480    9.1260 C.2       1 628         0.0989
      3 N3          0.4010   30.5900    8.2500 N.pl3     1 628        -0.2118
      4 C4          0.7650   31.8510    7.8860 C.2       1 628         0.1314
      5 C5          0.1480   33.0090    8.4460 C.2       1 628        -0.0185
      6 C6         -0.8890   32.7610    9.4030 C.2       1 628        -0.0471
      7 C10         1.0960   29.6550    7.5990 C.2       1 628         0.0695
      8 C11         1.9670   30.4360    6.8060 C.2       1 628         0.0886
      9 N12         1.7880   31.7880    6.9660 N.2       1 628        -0.3189
     10 S1          6.9510   25.4950    7.4530 S.o2      1 628         0.0602
     11 C14         5.7450   26.7150    7.0990 C.ar      1 628         0.0950
     12 C15         5.6520   27.1910    5.7520 C.ar      1 628        -0.0463
     13 C16         4.7040   28.1660    5.4230 C.ar      1 628        -0.0389
     14 C17         3.8370   28.6750    6.4330 C.ar      1 628         0.0549
     15 C18         3.9300   28.1940    7.8030 C.ar      1 628        -0.0389
     16 C19         4.8930   27.2040    8.1400 C.ar      1 628        -0.0463
     17 C23        -2.2950   31.1080   10.7750 C.2       1 628         0.1551
     18 C24        -2.4620   29.6710   11.2620 C.ar      1 628         0.0589
     19 C25        -1.4430   28.9950   12.1060 C.ar      1 628         0.0591
     20 C26        -1.6360   27.6710   12.5460 C.ar      1 628        -0.0421
     21 C27        -2.7880   26.9430   12.1700 C.ar      1 628        -0.0565
     22 C28        -3.7930   27.5370   11.3550 C.ar      1 628        -0.0421
     23 C29        -3.6400   28.8750   10.8850 C.ar      1 628         0.0591
     24 O33        -3.0090   31.9910   11.2560 O.2       1 628        -0.3755
     25 O34         7.5810   25.1800    6.1970 O.2       1 628        -0.1521
     26 N35         2.8940   29.6640    5.9640 N.pl3     1 628        -0.2819
     27 CL2        -0.3020   29.6390   12.5070 Cl        1 628        -0.0647
     28 CL1        -4.6260   29.4180   10.1010 Cl        1 628        -0.0647
     29 N1          6.2290   24.1310    7.9880 N.am      1 628        -0.2623
     30 O1          7.7810   25.9560    8.5380 O.2       1 628        -0.1521
     31 H1         -0.8216   29.3186    9.3621 H         1 628         0.1289
     32 H2          0.4464   34.0176    8.1639 H         1 628         0.0566
     33 H3         -1.4141   33.5976    9.8616 H         1 628         0.0647
     34 H4          1.0134   28.5710    7.6624 H         1 628         0.0632
     35 H5          6.3140   26.7972    4.9893 H         1 628         0.0603
     36 H6          4.6294   28.5322    4.4055 H         1 628         0.0525
     37 H7          3.2672   28.5892    8.5643 H         1 628         0.0525
     38 H8          4.9794   26.8309    9.1541 H         1 628         0.0603
     39 H9         -0.8917   27.2043   13.1810 H         1 628         0.0636
     40 H10        -2.9077   25.9195   12.5065 H         1 628         0.0653
     41 H11        -4.6782   26.9700   11.0905 H         1 628         0.0636
     42 H12         2.8685   29.8446    4.9503 H         1 628         0.2039
     43 H13         6.7829   23.3357    8.2344 H         1 628         0.1633
     44 H14         5.2331   24.0912    8.0692 H         1 628         0.1633
@<TRIPOS>BOND
     1    2    1 2  
     2    6    1 1  
     3    1   17 1  
     4    3    2 1  
     5    4    3 1  
     6    7    3 1  
     7    4    5 1  
     8    9    4 2  
     9    5    6 2  
    10    8    7 2  
    11    8    9 1  
    12   26    8 1  
    13   11   10 1  
    14   10   25 2  
    15   10   29 am 
    16   10   30 2  
    17   12   11 ar 
    18   11   16 ar 
    19   13   12 ar 
    20   14   13 ar 
    21   14   15 ar 
    22   14   26 1  
    23   15   16 ar 
    24   17   18 1  
    25   17   24 2  
    26   18   19 ar 
    27   18   23 ar 
    28   19   20 ar 
    29   19   27 1  
    30   20   21 ar 
    31   21   22 ar 
    32   22   23 ar 
    33   23   28 1  
    34    2   31 1  
    35    5   32 1  
    36    6   33 1  
    37    7   34 1  
    38   12   35 1  
    39   13   36 1  
    40   15   37 1  
    41   16   38 1  
    42   20   39 1  
    43   21   40 1  
    44   22   41 1  
    45   26   42 1  
    46   29   43 1  
    47   29   44 1  
@<TRIPOS>SUBSTRUCTURE
     1 628         1

