### 
### Created by X-TOOL on Mon Sep 10 21:12:47 2018
### 

@<TRIPOS>MOLECULE
1ylv_ligand
   16    15     1     0     0
SMALL
GAST_HUCK


@<TRIPOS>ATOM
      1 C4         19.5400   24.7080   16.4340 C.3       1 SHF        -0.0544
      2 C5         19.2830   25.0150   17.9040 C.3       1 SHF        -0.0652
      3 C3         19.9970   25.8310   15.5370 C.3       1 SHF        -0.0417
      4 C2         21.4120   25.6440   15.0290 C.3       1 SHF         0.0002
      5 C1         21.8220   26.6900   14.0160 C.2       1 SHF         0.0348
      6 O1         21.0180   27.6000   13.7180 O.co2     1 SHF        -0.5690
      7 OH1        22.9520   26.6400   13.4820 O.co2     1 SHF        -0.5690
      8 H1         18.6012   24.3177   16.0141 H         1 SHF         0.0264
      9 H2         20.3123   23.9257   16.3951 H         1 SHF         0.0264
     10 H3         18.9585   24.0986   18.4186 H         1 SHF         0.0230
     11 H4         18.4969   25.7800   17.9869 H         1 SHF         0.0230
     12 H5         20.2080   25.3880   18.3679 H         1 SHF         0.0230
     13 H6         19.9493   26.7731   16.1027 H         1 SHF         0.0283
     14 H7         19.3189   25.8875   14.6727 H         1 SHF         0.0283
     15 H8         21.4868   24.6526   14.5583 H         1 SHF         0.0430
     16 H9         22.1010   25.6966   15.8848 H         1 SHF         0.0430
@<TRIPOS>BOND
     1    1    2 1  
     2    1    3 1  
     3    3    4 1  
     4    4    5 1  
     5    5    6 ar 
     6    5    7 ar 
     7    1    8 1  
     8    1    9 1  
     9    2   10 1  
    10    2   11 1  
    11    2   12 1  
    12    3   13 1  
    13    3   14 1  
    14    4   15 1  
    15    4   16 1  
@<TRIPOS>SUBSTRUCTURE
     1 SHF         1

