### 
### Created by X-TOOL on Mon Sep 10 21:12:55 2018
### 

@<TRIPOS>MOLECULE
1ym4_ligand
   94    94     1     0     0
SMALL
GAST_HUCK


@<TRIPOS>ATOM
      1 N1         29.6060    5.9860    9.6350 N.am      1 24M        -0.2794
      2 C3         30.8690    5.2750    9.5090 C.3       1 24M         0.0686
      3 C5         31.0950    4.6900    8.0950 C.3       1 24M         0.0832
      4 O7         30.0880    3.7350    7.7430 O.3       1 24M        -0.3891
      5 C9         31.1390    5.7590    7.0240 C.3       1 24M         0.0069
      6 C11        31.6750    5.0190    5.7560 C.3       1 24M         0.0539
      7 C13        30.8200    5.4830    4.5820 C.3       1 24M        -0.0329
      8 C16        29.4500    5.8410    5.1840 C.3       1 24M        -0.0502
      9 C19        29.6890    6.1850    6.6820 C.3       1 24M        -0.0453
     10 C22        33.1460    5.2880    5.5360 C.2       1 24M         0.1811
     11 O23        33.6080    6.3910    5.7780 O.2       1 24M        -0.3967
     12 N24        33.8920    4.2760    5.0780 N.am      1 ALA        -0.2714
     13 C26        35.3010    4.5490    4.7890 C.3       1 ALA         0.0915
     14 C28        36.0640    3.2390    4.6360 C.3       1 ALA        -0.0300
     15 C32        35.3840    5.3470    3.5120 C.2       1 ALA         0.0598
     16 O33        34.4110    5.9390    3.0530 O.co2     1 ALA        -0.5666
     17 O34        36.5680    5.3600    2.9060 O.co2     1 ALA        -0.5666
     18 C36        30.9510    4.1700   10.5950 C.3       1 24M        -0.0251
     19 C39        30.9280    4.8450   11.9800 C.3       1 24M        -0.0446
     20 C41        32.2860    5.5390   12.2340 C.3       1 24M        -0.0626
     21 C45        30.6670    3.8000   13.0910 C.3       1 24M        -0.0626
     22 C49        29.6310    7.3240    9.5400 C.2       1 ASN         0.2043
     23 O50        30.6230    7.9460    9.2110 O.2       1 ASN        -0.3944
     24 C51        28.3660    8.0300    9.8640 C.3       1 ASN         0.1474
     25 N53        28.2800    8.0240   11.3100 N.am      1 ASN        -0.2616
     26 C55        27.0800    7.9270   11.8590 C.2       1 VAL         0.2043
     27 O56        26.0420    7.9220   11.2030 O.2       1 VAL        -0.3944
     28 C57        27.0250    7.8310   13.3520 C.3       1 VAL         0.1334
     29 N59        25.7800    8.4780   13.7920 N.am      1 VAL        -0.2608
     30 C61        25.8880    9.4510   14.7140 C.2       1 GLU         0.2268
     31 O62        26.8800    9.5850   15.3980 O.2       1 GLU        -0.3907
     32 C63        24.7510   10.3960   14.8910 C.3       1 GLU         0.0665
     33 N65        23.7960   10.2990   13.7810 N.4       1 GLU         0.2380
     34 C68        24.0610   10.2280   16.2640 C.3       1 GLU         0.0194
     35 C71        23.8780   11.6360   16.9010 C.3       1 GLU         0.0075
     36 C74        22.4280   11.9150   17.2990 C.2       1 GLU         0.0351
     37 O75        21.5990   11.0280   17.4280 O.co2     1 GLU        -0.5690
     38 O76        22.1170   13.2050   17.5090 O.co2     1 GLU        -0.5690
     39 C78        27.1550    6.3510   13.7810 C.3       1 VAL        -0.0063
     40 C80        27.3540    6.2060   15.3270 C.3       1 VAL        -0.0584
     41 C84        25.9300    5.5500   13.3400 C.3       1 VAL        -0.0584
     42 C88        28.3530    9.5150    9.3320 C.3       1 ASN         0.0773
     43 C91        26.9420   10.1210    9.3510 C.2       1 ASN         0.1780
     44 O92        26.1120    9.7680    8.5270 O.2       1 ASN        -0.3970
     45 N93        26.6630   11.0380   10.3100 N.am      1 ASN        -0.3007
     46 H1         28.7487    5.4943    9.7872 H         1 24M         0.1856
     47 H2         31.6777    5.9965    9.6972 H         1 24M         0.0582
     48 H3         32.0674    4.1759    8.1037 H         1 24M         0.0621
     49 H4         30.2616    3.4003    6.8710 H         1 24M         0.2099
     50 H5         31.7630    6.6166    7.3157 H         1 24M         0.0354
     51 H6         31.5430    3.9350    5.8884 H         1 24M         0.0541
     52 H7         30.7150    4.6767    3.8411 H         1 24M         0.0292
     53 H8         31.2711    6.3646    4.1031 H         1 24M         0.0292
     54 H9         28.7639    4.9856    5.0974 H         1 24M         0.0267
     55 H10        29.0222    6.7087    4.6605 H         1 24M         0.0267
     56 H11        29.5653    7.2658    6.8449 H         1 24M         0.0270
     57 H12        28.9757    5.6350    7.3134 H         1 24M         0.0270
     58 H13        33.5013    3.3662    4.9382 H         1 ALA         0.1875
     59 H14        35.7396    5.1295    5.6140 H         1 ALA         0.0723
     60 H15        37.1209    3.4535    4.4192 H         1 ALA         0.0270
     61 H16        35.6310    2.6568    3.8093 H         1 ALA         0.0270
     62 H17        35.9911    2.6610    5.5691 H         1 ALA         0.0270
     63 H18        31.8842    3.6001   10.4752 H         1 24M         0.0291
     64 H19        30.0914    3.4904   10.4989 H         1 24M         0.0291
     65 H20        30.1260    5.5975   11.9997 H         1 24M         0.0296
     66 H21        32.2719    6.0217   13.2224 H         1 24M         0.0232
     67 H22        32.4606    6.2984   11.4576 H         1 24M         0.0232
     68 H23        33.0917    4.7908   12.2029 H         1 24M         0.0232
     69 H24        29.7008    3.3063   12.9103 H         1 24M         0.0232
     70 H25        30.6446    4.3026   14.0692 H         1 24M         0.0232
     71 H26        31.4700    3.0483   13.0833 H         1 24M         0.0232
     72 H27        27.5142    7.4873    9.4283 H         1 ASN         0.0826
     73 H28        29.1019    8.0911   11.8757 H         1 ASN         0.1885
     74 H29        27.8729    8.3840   13.7825 H         1 VAL         0.0802
     75 H30        24.8917    8.2063   13.4217 H         1 VAL         0.1885
     76 H31        25.1710   11.4124   14.8668 H         1 GLU         0.1099
     77 H32        23.0404   10.9493   13.9301 H         1 GLU         0.2015
     78 H33        23.4283    9.3616   13.7350 H         1 GLU         0.2015
     79 H34        24.2632   10.5196   12.9155 H         1 GLU         0.2015
     80 H35        24.6856    9.6029   16.9191 H         1 GLU         0.0363
     81 H36        23.0789    9.7512   16.1297 H         1 GLU         0.0363
     82 H37        24.1965   12.3966   16.1730 H         1 GLU         0.0434
     83 H38        24.5092   11.7014   17.7995 H         1 GLU         0.0434
     84 H39        28.0407    5.9310   13.2819 H         1 VAL         0.0343
     85 H40        27.4415    5.1408   15.5871 H         1 VAL         0.0234
     86 H41        26.4900    6.6414   15.8504 H         1 VAL         0.0234
     87 H42        28.2703    6.7338   15.6299 H         1 VAL         0.0234
     88 H43        25.7948    5.6553   12.2534 H         1 VAL         0.0234
     89 H44        25.0375    5.9295   13.8590 H         1 VAL         0.0234
     90 H45        26.0762    4.4889   13.5901 H         1 VAL         0.0234
     91 H46        28.7299    9.5253    8.2987 H         1 ASN         0.0551
     92 H47        29.0103   10.1259    9.9682 H         1 ASN         0.0551
     93 H48        25.7550   11.4547   10.3543 H         1 ASN         0.1814
     94 H49        27.3652   11.2976   10.9730 H         1 ASN         0.1814
@<TRIPOS>BOND
     1    1    2 1  
     2    1   22 am 
     3    2    3 1  
     4    2   18 1  
     5    3    4 1  
     6    3    5 1  
     7    5    6 1  
     8    5    9 1  
     9    6    7 1  
    10    6   10 1  
    11    7    8 1  
    12    8    9 1  
    13   10   11 2  
    14   10   12 am 
    15   12   13 1  
    16   13   14 1  
    17   13   15 1  
    18   15   16 ar 
    19   15   17 ar 
    20   18   19 1  
    21   19   20 1  
    22   19   21 1  
    23   22   23 2  
    24   22   24 1  
    25   24   25 1  
    26   24   42 1  
    27   25   26 am 
    28   26   27 2  
    29   26   28 1  
    30   28   29 1  
    31   28   39 1  
    32   29   30 am 
    33   30   31 2  
    34   30   32 1  
    35   32   33 1  
    36   32   34 1  
    37   34   35 1  
    38   35   36 1  
    39   36   37 ar 
    40   36   38 ar 
    41   39   40 1  
    42   39   41 1  
    43   42   43 1  
    44   43   44 2  
    45   43   45 am 
    46    1   46 1  
    47    2   47 1  
    48    3   48 1  
    49    4   49 1  
    50    5   50 1  
    51    6   51 1  
    52    7   52 1  
    53    7   53 1  
    54    8   54 1  
    55    8   55 1  
    56    9   56 1  
    57    9   57 1  
    58   12   58 1  
    59   13   59 1  
    60   14   60 1  
    61   14   61 1  
    62   14   62 1  
    63   18   63 1  
    64   18   64 1  
    65   19   65 1  
    66   20   66 1  
    67   20   67 1  
    68   20   68 1  
    69   21   69 1  
    70   21   70 1  
    71   21   71 1  
    72   24   72 1  
    73   25   73 1  
    74   28   74 1  
    75   29   75 1  
    76   32   76 1  
    77   33   77 1  
    78   33   78 1  
    79   33   79 1  
    80   34   80 1  
    81   34   81 1  
    82   35   82 1  
    83   35   83 1  
    84   39   84 1  
    85   40   85 1  
    86   40   86 1  
    87   40   87 1  
    88   41   88 1  
    89   41   89 1  
    90   41   90 1  
    91   42   91 1  
    92   42   92 1  
    93   45   93 1  
    94   45   94 1  
@<TRIPOS>SUBSTRUCTURE
     1 24M         1

