### 
### Created by X-TOOL on Mon Sep 10 21:12:52 2018
### 

@<TRIPOS>MOLECULE
1ymx_ligand
   41    42     1     0     0
SMALL
GAST_HUCK


@<TRIPOS>ATOM
      1 C4         -8.7680   55.5470   37.6260 C.2       1 CFX         0.1804
      2 O5         -8.4310   56.2250   36.6850 O.2       1 CFX        -0.3088
      3 N1         -8.1880   53.2340   36.5780 N.pl3     1 CFX        -0.3292
      4 C2         -9.4210   53.1610   37.3380 C.3       1 CFX         0.1331
      5 S8        -10.5520   51.9220   36.6180 S.3       1 CFX        -0.1205
      6 C9         -9.3570   50.5340   36.4610 C.3       1 CFX         0.0195
      7 C10        -8.0640   50.8610   36.0050 C.2       1 CFX        -0.0450
      8 C11        -7.5200   52.1520   36.0850 C.2       1 CFX         0.0463
      9 C15        -7.3590   49.6600   35.4700 C.3       1 CFX        -0.0403
     10 C12        -6.1120   52.5590   35.7360 C.2       1 CFX         0.0568
     11 O13        -5.3620   52.5550   36.7260 O.co2     1 CFX        -0.5692
     12 O14        -5.9670   52.8830   34.5290 O.co2     1 CFX        -0.5692
     13 C3        -10.0080   54.6040   37.3970 C.3       1 CFX         0.2481
     14 O16       -10.8840   54.6420   38.5550 O.3       1 CFX        -0.3528
     15 C17       -11.3920   55.9210   38.9500 C.3       1 CFX         0.0374
     16 N18       -10.6720   54.9890   36.1330 N.am      1 CFX        -0.2522
     17 C19       -11.9870   54.7640   35.8290 C.2       1 CFX         0.1903
     18 O21       -12.7650   54.1960   36.6150 O.2       1 CFX        -0.3938
     19 C20       -12.4790   55.2350   34.4370 C.3       1 CFX         0.0816
     20 C23       -13.6150   56.2830   34.5180 C.2       1 CFX         0.0307
     21 S24       -14.5880   56.4960   35.9390 S.3       1 CFX        -0.0419
     22 C25       -15.5060   57.7320   35.2280 C.2       1 CFX        -0.0189
     23 C26       -15.1120   57.9940   33.9620 C.2       1 CFX        -0.0924
     24 C27       -14.0220   57.1720   33.5220 C.2       1 CFX        -0.0791
     25 H1         -8.2435   55.5857   38.5796 H         1 CFX         0.1393
     26 H2         -7.7896   54.1667   36.3983 H         1 CFX         0.1646
     27 H3         -9.1894   52.8412   38.3647 H         1 CFX         0.0688
     28 H4         -9.7840   49.8043   35.7573 H         1 CFX         0.0511
     29 H5         -9.2532   50.0696   37.4527 H         1 CFX         0.0511
     30 H6         -6.3556   49.9480   35.1233 H         1 CFX         0.0364
     31 H7         -7.9319   49.2429   34.6287 H         1 CFX         0.0364
     32 H8         -7.2695   48.9035   36.2635 H         1 CFX         0.0364
     33 H9        -12.0362   55.8026   39.8337 H         1 CFX         0.0522
     34 H10       -11.9771   56.3539   38.1252 H         1 CFX         0.0522
     35 H11       -10.5531   56.5891   39.1946 H         1 CFX         0.0522
     36 H12       -10.1143   55.4517   35.4439 H         1 CFX         0.1859
     37 H13       -12.8485   54.3603   33.8817 H         1 CFX         0.0685
     38 H14       -11.6299   55.6800   33.8975 H         1 CFX         0.0685
     39 H15       -16.3180   58.2536   35.7325 H         1 CFX         0.0603
     40 H16       -15.5768   58.7550   33.3369 H         1 CFX         0.0373
     41 H17       -13.5685   57.2339   32.5339 H         1 CFX         0.0284
@<TRIPOS>BOND
     1    1    2 2  
     2   13    1 1  
     3    4    3 1  
     4    3    8 1  
     5    4    5 1  
     6    4   13 1  
     7    5    6 1  
     8    6    7 1  
     9    7    8 2  
    10    7    9 1  
    11    8   10 1  
    12   10   11 ar 
    13   10   12 ar 
    14   13   14 1  
    15   13   16 1  
    16   14   15 1  
    17   16   17 am 
    18   17   18 2  
    19   17   19 1  
    20   19   20 1  
    21   20   21 1  
    22   20   24 2  
    23   21   22 1  
    24   22   23 2  
    25   23   24 1  
    26    1   25 1  
    27    3   26 1  
    28    4   27 1  
    29    6   28 1  
    30    6   29 1  
    31    9   30 1  
    32    9   31 1  
    33    9   32 1  
    34   15   33 1  
    35   15   34 1  
    36   15   35 1  
    37   16   36 1  
    38   19   37 1  
    39   19   38 1  
    40   22   39 1  
    41   23   40 1  
    42   24   41 1  
@<TRIPOS>SUBSTRUCTURE
     1 CFX         1

