### 
### Created by X-TOOL on Mon Sep 10 21:12:53 2018
### 

@<TRIPOS>MOLECULE
1you_ligand
   48    50     1     0     0
SMALL
GAST_HUCK


@<TRIPOS>ATOM
      1 F29        42.0890   29.5350   -7.3330 F         1 PFD        -0.1925
      2 C28        41.7620   30.4600   -6.4300 C.ar      1 PFD         0.1208
      3 C26        40.4110   30.7680   -6.2270 C.ar      1 PFD        -0.0362
      4 C24        40.0780   31.7620   -5.3140 C.ar      1 PFD        -0.0306
      5 C27        42.7860   31.1330   -5.7540 C.ar      1 PFD        -0.0362
      6 C25        42.4280   32.1030   -4.8230 C.ar      1 PFD        -0.0306
      7 C23        41.0830   32.4130   -4.6010 C.ar      1 PFD         0.1094
      8 O22        40.7230   33.3360   -3.6880 O.3       1 PFD        -0.2675
      9 C20        41.0600   34.6710   -3.6600 C.ar      1 PFD         0.1040
     10 C16        41.4230   35.3780   -4.7970 C.ar      1 PFD        -0.0369
     11 C12        41.7400   36.7460   -4.6610 C.ar      1 PFD        -0.0408
     12 C17        41.0180   35.3380   -2.4230 C.ar      1 PFD        -0.0369
     13 C13        41.3460   36.6930   -2.2980 C.ar      1 PFD        -0.0408
     14 C6         41.7010   37.4090   -3.4300 C.ar      1 PFD         0.0783
     15 O2         42.1240   38.7300   -3.3230 O.3       1 PFD        -0.3065
     16 C1         43.3040   39.0440   -2.4320 C.3       1 PFD         0.2569
     17 C5         44.3030   40.1410   -2.8970 C.3       1 PFD         0.0194
     18 C11        44.9380   40.9890   -1.7550 C.3       1 PFD         0.0491
     19 O15        46.1660   40.4680   -1.1670 O.3       1 PFD        -0.3802
     20 C19        46.1340   40.3520    0.2790 C.3       1 PFD         0.0448
     21 C21        47.4430   39.9030    0.9170 C.3       1 PFD        -0.0416
     22 C4         44.2880   37.9490   -1.9870 C.2       1 PFD         0.2680
     23 O10        45.0570   37.4150   -2.7960 O.2       1 PFD        -0.3331
     24 N9         44.4250   37.5400   -0.7020 N.am      1 PFD        -0.1779
     25 C14        43.6440   38.0780    0.2460 C.2       1 PFD         0.3188
     26 O18        43.7870   37.6320    1.4920 O.2       1 PFD        -0.3814
     27 N7         42.7430   39.0390   -0.0030 N.am      1 PFD        -0.1779
     28 C3         42.5450   39.5380   -1.2450 C.2       1 PFD         0.2680
     29 O8         41.7030   40.4060   -1.5140 O.2       1 PFD        -0.3331
     30 H1         39.6376   30.2399   -6.7729 H         1 PFD         0.0578
     31 H2         39.0394   32.0300   -5.1571 H         1 PFD         0.0541
     32 H3         43.8275   30.9052   -5.9500 H         1 PFD         0.0578
     33 H4         43.1985   32.6227   -4.2651 H         1 PFD         0.0541
     34 H5         41.4621   34.8919   -5.7651 H         1 PFD         0.0526
     35 H6         42.0249   37.3051   -5.5449 H         1 PFD         0.0518
     36 H7         40.7223   34.7856   -1.5384 H         1 PFD         0.0526
     37 H8         41.3226   37.1761   -1.3279 H         1 PFD         0.0518
     38 H9         43.7670   40.8255   -3.5709 H         1 PFD         0.0295
     39 H10        45.1177   39.6477   -3.4474 H         1 PFD         0.0295
     40 H11        44.1932   41.0780   -0.9504 H         1 PFD         0.0558
     41 H12        45.1590   41.9867   -2.1621 H         1 PFD         0.0558
     42 H13        45.3560   39.6216    0.5459 H         1 PFD         0.0557
     43 H14        45.8714   41.3359    0.6948 H         1 PFD         0.0557
     44 H15        47.3182   39.8457    2.0084 H         1 PFD         0.0252
     45 H16        48.2356   40.6267    0.6761 H         1 PFD         0.0252
     46 H17        47.7201   38.9124    0.5272 H         1 PFD         0.0252
     47 H18        45.1020   36.8438   -0.4633 H         1 PFD         0.2265
     48 H19        42.1989   39.3992    0.7548 H         1 PFD         0.2265
@<TRIPOS>BOND
     1    1    2 1  
     2    2    3 ar 
     3    2    5 ar 
     4    3    4 ar 
     5    4    7 ar 
     6    5    6 ar 
     7    6    7 ar 
     8    7    8 1  
     9    8    9 1  
    10    9   10 ar 
    11    9   12 ar 
    12   10   11 ar 
    13   11   14 ar 
    14   12   13 ar 
    15   13   14 ar 
    16   14   15 1  
    17   15   16 1  
    18   16   17 1  
    19   16   22 1  
    20   16   28 1  
    21   17   18 1  
    22   18   19 1  
    23   19   20 1  
    24   20   21 1  
    25   22   23 2  
    26   22   24 am 
    27   24   25 1  
    28   25   26 2  
    29   25   27 am 
    30   27   28 am 
    31   28   29 2  
    32    3   30 1  
    33    4   31 1  
    34    5   32 1  
    35    6   33 1  
    36   10   34 1  
    37   11   35 1  
    38   12   36 1  
    39   13   37 1  
    40   17   38 1  
    41   17   39 1  
    42   18   40 1  
    43   18   41 1  
    44   20   42 1  
    45   20   43 1  
    46   21   44 1  
    47   21   45 1  
    48   21   46 1  
    49   24   47 1  
    50   27   48 1  
@<TRIPOS>SUBSTRUCTURE
     1 PFD         1

