### 
### Created by X-TOOL on Mon Sep 10 21:12:54 2018
### 

@<TRIPOS>MOLECULE
1yp9_ligand
   59    64     1     0     0
SMALL
GAST_HUCK


@<TRIPOS>ATOM
      1 N1         10.2660   67.3520    7.0210 N.pl3     1 UIZ        -0.2729
      2 C3         11.5340   67.0880    7.3440 C.cat     1 UIZ         0.2318
      3 N2         12.2450   66.3720    6.4320 N.pl3     1 UIZ        -0.2729
      4 C4         12.1500   67.5160    8.5580 C.ar      1 UIZ         0.0188
      5 C5         13.4910   67.1870    8.8330 C.ar      1 UIZ        -0.0632
      6 C6         14.0840   67.5970   10.0220 C.ar      1 UIZ        -0.0549
      7 C7         13.3420   68.3480   10.9540 C.ar      1 UIZ         0.0071
      8 C10        13.9750   68.8110   12.2350 C.3       1 UIZ         0.0334
      9 C22        14.5120   70.2480   12.2890 C.3       1 UIZ         0.1110
     10 C20        13.4690   71.3620   12.0890 C.2       1 UIZ         0.1912
     11 O21        12.4110   71.3280   11.4200 O.2       1 UIZ        -0.3960
     12 N19        13.8060   72.3910   12.9460 N.am      1 UIZ        -0.2626
     13 C23        12.8550   73.5570   13.0540 C.3       1 UIZ         0.0602
     14 C24        12.9640   74.6170   11.9690 C.ar      1 UIZ        -0.0405
     15 C32        11.8090   75.0460   11.2380 C.ar      1 UIZ        -0.0782
     16 C31        11.8990   76.0360   10.2370 C.ar      1 UIZ        -0.0477
     17 C30        13.1670   76.5720    9.9760 C.ar      1 UIZ         0.1160
     18 O29        13.5140   77.5350    9.0580 O.3       1 UIZ        -0.2956
     19 C28        14.9590   77.7100    9.2040 C.3       1 UIZ         0.1854
     20 O27        15.4590   76.8310   10.2460 O.3       1 UIZ        -0.2927
     21 C26        14.3110   76.1590   10.6770 C.ar      1 UIZ         0.1170
     22 C25        14.2180   75.1770   11.6820 C.ar      1 UIZ        -0.0378
     23 C17        14.6940   71.9390   14.0070 C.3       1 UIZ         0.0465
     24 C16        14.8060   70.3970   13.8090 C.3       1 UIZ         0.0493
     25 C15        13.6540   69.5850   14.4710 C.3       1 UIZ        -0.0113
     26 C14        14.2710   68.6490   15.5370 C.3       1 UIZ        -0.0043
     27 C13        13.3140   67.4730   15.5160 C.3       1 UIZ        -0.0074
     28 C12        13.0060   67.2820   14.0030 C.3       1 UIZ        -0.0296
     29 N11        13.0800   68.6520   13.4240 N.4       1 UIZ         0.2536
     30 C8         12.0070   68.6620   10.6850 C.ar      1 UIZ        -0.0549
     31 C9         11.4080   68.2550    9.4850 C.ar      1 UIZ        -0.0632
     32 H1          9.6713   67.8903    7.6672 H         1 UIZ         0.3180
     33 H2          9.8823   67.0174    6.1256 H         1 UIZ         0.3180
     34 H3         13.2295   66.1337    6.6186 H         1 UIZ         0.3180
     35 H4         11.7989   66.0681    5.5548 H         1 UIZ         0.3180
     36 H5         14.0637   66.6116    8.1147 H         1 UIZ         0.0599
     37 H6         15.1158   67.3389   10.2312 H         1 UIZ         0.0559
     38 H7         14.8407   68.1490   12.3840 H         1 UIZ         0.1046
     39 H8         15.3838   70.3821   11.6318 H         1 UIZ         0.0623
     40 H9         13.0350   74.0480   14.0217 H         1 UIZ         0.0663
     41 H10        11.8304   73.1574   13.0305 H         1 UIZ         0.0663
     42 H11        10.8457   74.6006   11.4587 H         1 UIZ         0.0437
     43 H12        11.0229   76.3685    9.6920 H         1 UIZ         0.0493
     44 H13        15.1749   78.7545    9.4730 H         1 UIZ         0.0970
     45 H14        15.4542   77.4665    8.2524 H         1 UIZ         0.0970
     46 H15        15.1007   74.8590   12.2249 H         1 UIZ         0.0451
     47 H16        14.2675   72.1722   14.9938 H         1 UIZ         0.0530
     48 H17        15.6818   72.4137   13.9130 H         1 UIZ         0.0530
     49 H18        15.7926   70.0183   14.1142 H         1 UIZ         0.0406
     50 H19        12.8884   70.2493   14.8982 H         1 UIZ         0.0856
     51 H20        14.2923   69.1293   16.5264 H         1 UIZ         0.0322
     52 H21        15.2891   68.3407   15.2570 H         1 UIZ         0.0322
     53 H22        12.3967   67.7025   16.0780 H         1 UIZ         0.0319
     54 H23        13.7869   66.5737   15.9375 H         1 UIZ         0.0319
     55 H24        12.0017   66.8558   13.8627 H         1 UIZ         0.0815
     56 H25        13.7526   66.6230   13.5357 H         1 UIZ         0.0815
     57 H26        12.1471   68.9381   13.1711 H         1 UIZ         0.2056
     58 H27        11.4303   69.2247   11.4101 H         1 UIZ         0.0559
     59 H28        10.3756   68.5115    9.2766 H         1 UIZ         0.0599
@<TRIPOS>BOND
     1    1    2 ar 
     2    2    3 ar 
     3    2    4 1  
     4    4    5 ar 
     5    4   31 ar 
     6    5    6 ar 
     7    6    7 ar 
     8    7    8 1  
     9    7   30 ar 
    10    8    9 1  
    11    8   29 1  
    12    9   10 1  
    13    9   24 1  
    14   10   11 2  
    15   10   12 am 
    16   12   13 1  
    17   12   23 1  
    18   13   14 1  
    19   14   15 ar 
    20   14   22 ar 
    21   15   16 ar 
    22   16   17 ar 
    23   17   18 1  
    24   17   21 ar 
    25   18   19 1  
    26   19   20 1  
    27   20   21 1  
    28   21   22 ar 
    29   23   24 1  
    30   24   25 1  
    31   25   26 1  
    32   25   29 1  
    33   26   27 1  
    34   27   28 1  
    35   28   29 1  
    36   30   31 ar 
    37    1   32 1  
    38    1   33 1  
    39    3   34 1  
    40    3   35 1  
    41    5   36 1  
    42    6   37 1  
    43    8   38 1  
    44    9   39 1  
    45   13   40 1  
    46   13   41 1  
    47   15   42 1  
    48   16   43 1  
    49   19   44 1  
    50   19   45 1  
    51   22   46 1  
    52   23   47 1  
    53   23   48 1  
    54   24   49 1  
    55   25   50 1  
    56   26   51 1  
    57   26   52 1  
    58   27   53 1  
    59   27   54 1  
    60   28   55 1  
    61   28   56 1  
    62   29   57 1  
    63   30   58 1  
    64   31   59 1  
@<TRIPOS>SUBSTRUCTURE
     1 UIZ         1

