### 
### Created by X-TOOL on Mon Sep 10 21:12:53 2018
### 

@<TRIPOS>MOLECULE
1ype_ligand
   65    70     1     0     0
SMALL
GAST_HUCK


@<TRIPOS>ATOM
      1 N1         10.4780  -11.8790   24.1020 N.pl3     1 UIP        -0.2729
      2 C3         11.2010  -10.8070   23.7380 C.cat     1 UIP         0.2318
      3 N2         10.8160   -9.6400   24.3190 N.pl3     1 UIP        -0.2729
      4 C4         12.2760  -10.9070   22.8150 C.ar      1 UIP         0.0188
      5 C9         12.5950  -12.1660   22.2840 C.ar      1 UIP        -0.0632
      6 C8         13.6580  -12.3050   21.3750 C.ar      1 UIP        -0.0549
      7 C7         14.4080  -11.1940   20.9800 C.ar      1 UIP         0.0071
      8 C6         14.0640   -9.9390   21.5120 C.ar      1 UIP        -0.0549
      9 C5         13.0340   -9.7900   22.4220 C.ar      1 UIP        -0.0632
     10 C10        15.5400  -11.3240   19.9990 C.3       1 UIP         0.0334
     11 N11        15.3840  -12.5390   19.1310 N.4       1 UIP         0.2536
     12 C12        14.3780  -12.4050   18.0400 C.3       1 UIP        -0.0296
     13 C13        15.1810  -12.4830   16.7170 C.3       1 UIP        -0.0074
     14 C14        16.5850  -12.0440   17.0900 C.3       1 UIP        -0.0043
     15 C15        16.7410  -12.7050   18.4770 C.3       1 UIP        -0.0111
     16 C16        17.7720  -11.8600   19.2980 C.3       1 UIP         0.0521
     17 C17        18.8750  -12.8050   19.8750 C.3       1 UIP         0.0573
     18 N19        18.3590  -13.2410   21.1420 N.am      1 UIP        -0.2595
     19 C20        17.1700  -12.6420   21.4890 C.2       1 UIP         0.1915
     20 O21        16.6000  -12.7760   22.6030 O.2       1 UIP        -0.3960
     21 C22        16.9660  -11.4190   20.5600 C.3       1 UIP         0.1113
     22 C23        18.8590  -14.4250   21.9280 C.3       1 UIP         0.0605
     23 C24        19.8900  -14.1260   22.9970 C.ar      1 UIP        -0.0404
     24 C32        19.4920  -13.6940   24.3040 C.ar      1 UIP        -0.0782
     25 C31        20.3820  -13.3700   25.3500 C.ar      1 UIP        -0.0477
     26 C30        21.7340  -13.4580   25.0110 C.ar      1 UIP         0.1160
     27 O29        22.8270  -13.0620   25.7580 O.3       1 UIP        -0.2956
     28 C28        23.9540  -13.7110   25.0730 C.3       1 UIP         0.1854
     29 O27        23.5520  -14.1020   23.7340 O.3       1 UIP        -0.2927
     30 C26        22.1660  -13.8890   23.7400 C.ar      1 UIP         0.1170
     31 C25        21.2620  -14.2250   22.7050 C.ar      1 UIP        -0.0378
     32 C18        20.2760  -12.1470   19.9730 C.3       1 UIP        -0.0317
     33 C42        20.9020  -12.0300   18.5770 C.3       1 UIP        -0.0632
     34 H1         10.6990  -12.8060   23.7112 H         1 UIP         0.3180
     35 H2          9.7027  -11.7740   24.7719 H         1 UIP         0.3180
     36 H3         11.3142   -8.7659   24.0983 H         1 UIP         0.3180
     37 H4         10.0261   -9.6298   24.9799 H         1 UIP         0.3180
     38 H5         12.0185  -13.0362   22.5764 H         1 UIP         0.0599
     39 H6         13.8985  -13.2839   20.9763 H         1 UIP         0.0559
     40 H7         14.6220   -9.0636   21.1999 H         1 UIP         0.0559
     41 H8         12.8108   -8.8119   22.8326 H         1 UIP         0.0599
     42 H9         15.4964  -10.4284   19.3618 H         1 UIP         0.1046
     43 H10        15.1508  -13.3375   19.7003 H         1 UIP         0.2056
     44 H11        13.8565  -11.4394   18.1157 H         1 UIP         0.0815
     45 H12        13.6445  -13.2230   18.0921 H         1 UIP         0.0815
     46 H13        14.7514  -11.8077   15.9624 H         1 UIP         0.0319
     47 H14        15.1872  -13.5117   16.3274 H         1 UIP         0.0319
     48 H15        16.6624  -10.9486   17.1535 H         1 UIP         0.0322
     49 H16        17.3303  -12.4235   16.3755 H         1 UIP         0.0322
     50 H17        17.0451  -13.7597   18.4057 H         1 UIP         0.0857
     51 H18        18.1900  -11.0221   18.7208 H         1 UIP         0.0409
     52 H19        18.9741  -13.6778   19.2129 H         1 UIP         0.0566
     53 H20        17.3009  -10.4779   21.0206 H         1 UIP         0.0623
     54 H21        19.3073  -15.1353   21.2177 H         1 UIP         0.0663
     55 H22        17.9928  -14.8937   22.4179 H         1 UIP         0.0663
     56 H23        18.4299  -13.6100   24.5037 H         1 UIP         0.0437
     57 H24        20.0436  -13.0765   26.3371 H         1 UIP         0.0493
     58 H25        24.2606  -14.6035   25.6381 H         1 UIP         0.0970
     59 H26        24.7981  -13.0084   25.0110 H         1 UIP         0.0970
     60 H27        21.6115  -14.5446   21.7299 H         1 UIP         0.0451
     61 H28        20.9243  -12.7647   20.6118 H         1 UIP         0.0285
     62 H29        20.1768  -11.1435   20.4125 H         1 UIP         0.0285
     63 H30        21.8944  -11.5625   18.6582 H         1 UIP         0.0230
     64 H31        20.2565  -11.4112   17.9364 H         1 UIP         0.0230
     65 H32        21.0040  -13.0324   18.1357 H         1 UIP         0.0230
@<TRIPOS>BOND
     1    1    2 ar 
     2    2    3 ar 
     3    2    4 1  
     4    4    5 ar 
     5    4    9 ar 
     6    5    6 ar 
     7    6    7 ar 
     8    7    8 ar 
     9    7   10 1  
    10    8    9 ar 
    11   10   11 1  
    12   10   21 1  
    13   11   12 1  
    14   11   15 1  
    15   12   13 1  
    16   13   14 1  
    17   14   15 1  
    18   15   16 1  
    19   16   17 1  
    20   16   21 1  
    21   17   18 1  
    22   17   32 1  
    23   18   19 am 
    24   18   22 1  
    25   19   20 2  
    26   19   21 1  
    27   22   23 1  
    28   23   24 ar 
    29   23   31 ar 
    30   24   25 ar 
    31   25   26 ar 
    32   26   27 1  
    33   26   30 ar 
    34   27   28 1  
    35   28   29 1  
    36   29   30 1  
    37   30   31 ar 
    38   32   33 1  
    39    1   34 1  
    40    1   35 1  
    41    3   36 1  
    42    3   37 1  
    43    5   38 1  
    44    6   39 1  
    45    8   40 1  
    46    9   41 1  
    47   10   42 1  
    48   11   43 1  
    49   12   44 1  
    50   12   45 1  
    51   13   46 1  
    52   13   47 1  
    53   14   48 1  
    54   14   49 1  
    55   15   50 1  
    56   16   51 1  
    57   17   52 1  
    58   21   53 1  
    59   22   54 1  
    60   22   55 1  
    61   24   56 1  
    62   25   57 1  
    63   28   58 1  
    64   28   59 1  
    65   31   60 1  
    66   32   61 1  
    67   32   62 1  
    68   33   63 1  
    69   33   64 1  
    70   33   65 1  
@<TRIPOS>SUBSTRUCTURE
     1 UIP         1

