### 
### Created by X-TOOL on Mon Sep 10 21:12:54 2018
### 

@<TRIPOS>MOLECULE
1ypg_ligand
   66    72     1     0     0
SMALL
GAST_HUCK


@<TRIPOS>ATOM
      1 N1         10.3920  -11.8420   24.2390 N.pl3     1 UIR        -0.2729
      2 C3         11.1550  -10.8420   23.7920 C.cat     1 UIR         0.2318
      3 C4         12.2240  -10.9460   22.8520 C.ar      1 UIR         0.0188
      4 C9         12.5480  -12.1990   22.3090 C.ar      1 UIR        -0.0632
      5 C8         13.5860  -12.3050   21.3830 C.ar      1 UIR        -0.0549
      6 C7         14.3110  -11.1800   20.9780 C.ar      1 UIR         0.0071
      7 C10        15.4670  -11.3170   20.0350 C.3       1 UIR         0.0334
      8 N11        15.3400  -12.5240   19.1570 N.4       1 UIR         0.2536
      9 C12        14.3840  -12.3600   18.0190 C.3       1 UIR        -0.0296
     10 C13        15.2470  -12.4590   16.7320 C.3       1 UIR        -0.0074
     11 C14        16.6180  -11.9890   17.1840 C.3       1 UIR        -0.0043
     12 C15        16.7240  -12.6920   18.5650 C.3       1 UIR        -0.0111
     13 C16        17.7200  -11.8570   19.4210 C.3       1 UIR         0.0523
     14 C18        20.3410  -12.8900   19.8910 C.3       1 UIR        -0.0169
     15 C17        18.8290  -12.7630   20.0550 C.3       1 UIR         0.0604
     16 C42        21.1640  -12.3390   20.3800 C.3       1 UIR        -0.0478
     17 C41        20.8360  -12.0190   18.7640 C.3       1 UIR        -0.0478
     18 N19        18.2280  -13.2680   21.2590 N.am      1 UIR        -0.2592
     19 C20        17.0320  -12.6620   21.5760 C.2       1 UIR         0.1915
     20 O21        16.4330  -12.7950   22.6740 O.2       1 UIR        -0.3960
     21 C22        16.8800  -11.4280   20.6600 C.3       1 UIR         0.1113
     22 C23        18.7190  -14.4170   22.0850 C.3       1 UIR         0.0605
     23 C24        19.6590  -14.0670   23.2310 C.ar      1 UIR        -0.0404
     24 C25        21.0380  -14.2840   23.0270 C.ar      1 UIR        -0.0378
     25 C26        21.9160  -13.9620   24.0820 C.ar      1 UIR         0.1170
     26 O27        23.3120  -14.1140   24.0690 O.3       1 UIR        -0.2927
     27 C28        23.6860  -13.6450   25.3880 C.3       1 UIR         0.1854
     28 O29        22.5010  -13.2210   26.1480 O.3       1 UIR        -0.2956
     29 C30        21.4410  -13.4380   25.3020 C.ar      1 UIR         0.1160
     30 C31        20.0810  -13.2230   25.5570 C.ar      1 UIR        -0.0477
     31 C32        19.2140  -13.5370   24.4830 C.ar      1 UIR        -0.0782
     32 C6         13.9800   -9.9340   21.5300 C.ar      1 UIR        -0.0549
     33 C5         12.9500   -9.8170   22.4480 C.ar      1 UIR        -0.0632
     34 N2         10.8240   -9.6400   24.3340 N.pl3     1 UIR        -0.2729
     35 H1          9.6436  -11.6535   24.9212 H         1 UIR         0.3180
     36 H2         10.5516  -12.8020   23.9017 H         1 UIR         0.3180
     37 H3         11.9937  -13.0812   22.6081 H         1 UIR         0.0599
     38 H4         13.8348  -13.2760   20.9704 H         1 UIR         0.0559
     39 H5         15.4538  -10.4184   19.4007 H         1 UIR         0.1046
     40 H6         15.0728  -13.3256   19.7066 H         1 UIR         0.2056
     41 H7         13.8865  -11.3804   18.0734 H         1 UIR         0.0815
     42 H8         13.6265  -13.1574   18.0357 H         1 UIR         0.0815
     43 H9         14.8491  -11.8061   15.9412 H         1 UIR         0.0319
     44 H10        15.2883  -13.4954   16.3656 H         1 UIR         0.0319
     45 H11        16.6588  -10.8942   17.2826 H         1 UIR         0.0322
     46 H12        17.4084  -12.3250   16.4967 H         1 UIR         0.0322
     47 H13        17.0283  -13.7463   18.4881 H         1 UIR         0.0857
     48 H14        18.1431  -11.0132   18.8562 H         1 UIR         0.0409
     49 H15        20.5568  -13.9661   19.8176 H         1 UIR         0.0323
     50 H16        18.6357  -13.6262   19.4012 H         1 UIR         0.0569
     51 H17        22.0880  -12.8690   20.6546 H         1 UIR         0.0269
     52 H18        20.9352  -11.5811   21.1437 H         1 UIR         0.0269
     53 H19        20.3046  -11.1154   18.4307 H         1 UIR         0.0269
     54 H20        21.4574  -12.4033   17.9417 H         1 UIR         0.0269
     55 H21        17.2050  -10.4963   21.1461 H         1 UIR         0.0623
     56 H22        19.2497  -15.1095   21.4151 H         1 UIR         0.0663
     57 H23        17.8407  -14.9220   22.5135 H         1 UIR         0.0663
     58 H24        21.4098  -14.6847   22.0909 H         1 UIR         0.0451
     59 H25        24.3729  -12.7919   25.2859 H         1 UIR         0.0970
     60 H26        24.1899  -14.4586   25.9304 H         1 UIR         0.0970
     61 H27        19.7191  -12.8443   26.5061 H         1 UIR         0.0493
     62 H28        18.1520  -13.3660   24.6169 H         1 UIR         0.0437
     63 H29        14.5370   -9.0522   21.2346 H         1 UIR         0.0559
     64 H30        12.7030   -8.8442   22.8577 H         1 UIR         0.0599
     65 H31        11.3441   -8.7928   24.0645 H         1 UIR         0.3180
     66 H32        10.0531   -9.5765   25.0141 H         1 UIR         0.3180
@<TRIPOS>BOND
     1    1    2 ar 
     2    2    3 1  
     3    2   34 ar 
     4    3    4 ar 
     5    3   33 ar 
     6    4    5 ar 
     7    5    6 ar 
     8    6    7 1  
     9    6   32 ar 
    10    7    8 1  
    11    7   21 1  
    12    8    9 1  
    13    8   12 1  
    14    9   10 1  
    15   10   11 1  
    16   11   12 1  
    17   12   13 1  
    18   13   15 1  
    19   13   21 1  
    20   15   14 1  
    21   14   16 1  
    22   14   17 1  
    23   15   18 1  
    24   16   17 1  
    25   18   19 am 
    26   18   22 1  
    27   19   20 2  
    28   19   21 1  
    29   22   23 1  
    30   23   24 ar 
    31   23   31 ar 
    32   24   25 ar 
    33   25   26 1  
    34   25   29 ar 
    35   26   27 1  
    36   27   28 1  
    37   28   29 1  
    38   29   30 ar 
    39   30   31 ar 
    40   32   33 ar 
    41    1   35 1  
    42    1   36 1  
    43    4   37 1  
    44    5   38 1  
    45    7   39 1  
    46    8   40 1  
    47    9   41 1  
    48    9   42 1  
    49   10   43 1  
    50   10   44 1  
    51   11   45 1  
    52   11   46 1  
    53   12   47 1  
    54   13   48 1  
    55   14   49 1  
    56   15   50 1  
    57   16   51 1  
    58   16   52 1  
    59   17   53 1  
    60   17   54 1  
    61   21   55 1  
    62   22   56 1  
    63   22   57 1  
    64   24   58 1  
    65   27   59 1  
    66   27   60 1  
    67   30   61 1  
    68   31   62 1  
    69   32   63 1  
    70   33   64 1  
    71   34   65 1  
    72   34   66 1  
@<TRIPOS>SUBSTRUCTURE
     1 UIR         1

