### 
### Created by X-TOOL on Mon Sep 10 21:12:54 2018
### 

@<TRIPOS>MOLECULE
1ypj_ligand
   67    71     1     0     0
SMALL
GAST_HUCK


@<TRIPOS>ATOM
      1 N1         10.7290  -11.8010   24.3240 N.pl3     1 UIB        -0.2729
      2 C3         11.4620  -10.7700   23.8820 C.cat     1 UIB         0.2318
      3 N2         11.0720   -9.5970   24.4620 N.pl3     1 UIB        -0.2729
      4 C4         12.5100  -10.9090   22.9150 C.ar      1 UIB         0.0188
      5 C5         13.2720   -9.8170   22.4530 C.ar      1 UIB        -0.0632
      6 C6         14.2890   -9.9680   21.5290 C.ar      1 UIB        -0.0549
      7 C7         14.6190  -11.2340   20.9920 C.ar      1 UIB         0.0071
      8 C10        15.6990  -11.3800   19.9560 C.3       1 UIB         0.0334
      9 C22        17.1830  -11.5280   20.3580 C.3       1 UIB         0.1116
     10 C16        17.8840  -12.0380   19.0830 C.3       1 UIB         0.0544
     11 C15        16.7300  -12.6320   18.2390 C.3       1 UIB        -0.0064
     12 C13        16.9380  -14.1140   17.8350 C.3       1 UIB        -0.0184
     13 C14        16.7210  -11.7930   16.9430 C.3       1 UIB        -0.0184
     14 N11        15.4930  -12.4940   19.0230 N.4       1 UIB         0.2532
     15 C12        14.2700  -12.3660   18.2020 C.3       1 UIB        -0.0407
     16 C17        18.9360  -13.0570   19.5920 C.3       1 UIB         0.0576
     17 N19        18.5190  -13.3720   20.9510 N.am      1 UIB        -0.2595
     18 C23        19.0410  -14.5060   21.7870 C.3       1 UIB         0.0605
     19 C24        20.0430  -14.0770   22.8530 C.ar      1 UIB        -0.0404
     20 C32        19.5990  -13.6360   24.1380 C.ar      1 UIB        -0.0782
     21 C31        20.4930  -13.3270   25.1870 C.ar      1 UIB        -0.0477
     22 C30        21.8550  -13.4770   24.8710 C.ar      1 UIB         0.1160
     23 C26        22.3080  -13.9030   23.6100 C.ar      1 UIB         0.1170
     24 C25        21.4120  -14.2160   22.5680 C.ar      1 UIB        -0.0378
     25 O27        23.7000  -13.9730   23.5350 O.3       1 UIB        -0.2927
     26 C28        24.1030  -13.5500   24.8690 C.3       1 UIB         0.1854
     27 O29        22.9300  -13.2350   25.6950 O.3       1 UIB        -0.2956
     28 C20        17.4350  -12.6540   21.3730 C.2       1 UIB         0.1915
     29 O21        16.8700  -12.7620   22.4930 O.2       1 UIB        -0.3960
     30 C18        20.3330  -12.4110   19.6630 C.3       1 UIB        -0.0317
     31 C41        20.8750  -12.2520   18.2290 C.3       1 UIB        -0.0632
     32 C8         13.8890  -12.3290   21.4710 C.ar      1 UIB        -0.0549
     33 C9         12.8400  -12.1640   22.3880 C.ar      1 UIB        -0.0632
     34 H1         10.9120  -12.7514   23.9717 H         1 UIB         0.3180
     35 H2          9.9826  -11.6430   25.0160 H         1 UIB         0.3180
     36 H3         11.5487   -8.7176   24.2164 H         1 UIB         0.3180
     37 H4         10.3011   -9.5916   25.1451 H         1 UIB         0.3180
     38 H5         13.0534   -8.8263   22.8348 H         1 UIB         0.0599
     39 H6         14.8467   -9.0955   21.2085 H         1 UIB         0.0559
     40 H7         15.6350  -10.4482   19.3750 H         1 UIB         0.1046
     41 H8         17.5887  -10.5711   20.7182 H         1 UIB         0.0623
     42 H9         18.3824  -11.2302   18.5271 H         1 UIB         0.0412
     43 H10        16.0778  -14.4563   17.2410 H         1 UIB         0.0287
     44 H11        17.0273  -14.7319   18.7407 H         1 UIB         0.0287
     45 H12        17.8564  -14.2055   17.2366 H         1 UIB         0.0287
     46 H13        16.5748  -10.7321   17.1941 H         1 UIB         0.0287
     47 H14        15.9014  -12.1321   16.2924 H         1 UIB         0.0287
     48 H15        17.6803  -11.9170   16.4192 H         1 UIB         0.0287
     49 H16        15.3815  -13.3342   19.5685 H         1 UIB         0.2056
     50 H17        13.3947  -12.2678   18.8609 H         1 UIB         0.0778
     51 H18        14.1561  -13.2604   17.5719 H         1 UIB         0.0778
     52 H19        14.3493  -11.4746   17.5625 H         1 UIB         0.0778
     53 H20        18.9589  -13.9538   18.9555 H         1 UIB         0.0566
     54 H21        19.5329  -15.2298   21.1206 H         1 UIB         0.0663
     55 H22        18.1885  -14.9886   22.2872 H         1 UIB         0.0663
     56 H23        18.5343  -13.5347   24.3145 H         1 UIB         0.0437
     57 H24        20.1544  -12.9987   26.1630 H         1 UIB         0.0493
     58 H25        21.7610  -14.5470   21.5966 H         1 UIB         0.0451
     59 H26        24.7367  -12.6547   24.7870 H         1 UIB         0.0970
     60 H27        24.6731  -14.3602   25.3470 H         1 UIB         0.0970
     61 H28        21.0093  -13.0538   20.2455 H         1 UIB         0.0285
     62 H29        20.2609  -11.4241   20.1434 H         1 UIB         0.0285
     63 H30        21.8733  -11.7914   18.2634 H         1 UIB         0.0230
     64 H31        20.1951  -11.6107   17.6490 H         1 UIB         0.0230
     65 H32        20.9435  -13.2404   17.7512 H         1 UIB         0.0230
     66 H33        14.1398  -13.3255   21.1258 H         1 UIB         0.0559
     67 H34        12.2690  -13.0320   22.6972 H         1 UIB         0.0599
@<TRIPOS>BOND
     1    1    2 ar 
     2    2    3 ar 
     3    2    4 1  
     4    4    5 ar 
     5    4   33 ar 
     6    5    6 ar 
     7    6    7 ar 
     8    7    8 1  
     9    7   32 ar 
    10    8    9 1  
    11    8   14 1  
    12    9   10 1  
    13    9   28 1  
    14   10   11 1  
    15   10   16 1  
    16   11   12 1  
    17   11   13 1  
    18   11   14 1  
    19   14   15 1  
    20   16   17 1  
    21   16   30 1  
    22   17   18 1  
    23   17   28 am 
    24   18   19 1  
    25   19   20 ar 
    26   19   24 ar 
    27   20   21 ar 
    28   21   22 ar 
    29   22   23 ar 
    30   22   27 1  
    31   23   24 ar 
    32   23   25 1  
    33   25   26 1  
    34   26   27 1  
    35   28   29 2  
    36   30   31 1  
    37   32   33 ar 
    38    1   34 1  
    39    1   35 1  
    40    3   36 1  
    41    3   37 1  
    42    5   38 1  
    43    6   39 1  
    44    8   40 1  
    45    9   41 1  
    46   10   42 1  
    47   12   43 1  
    48   12   44 1  
    49   12   45 1  
    50   13   46 1  
    51   13   47 1  
    52   13   48 1  
    53   14   49 1  
    54   15   50 1  
    55   15   51 1  
    56   15   52 1  
    57   16   53 1  
    58   18   54 1  
    59   18   55 1  
    60   20   56 1  
    61   21   57 1  
    62   24   58 1  
    63   26   59 1  
    64   26   60 1  
    65   30   61 1  
    66   30   62 1  
    67   31   63 1  
    68   31   64 1  
    69   31   65 1  
    70   32   66 1  
    71   33   67 1  
@<TRIPOS>SUBSTRUCTURE
     1 UIB         1

