### 
### Created by X-TOOL on Mon Sep 10 21:12:53 2018
### 

@<TRIPOS>MOLECULE
1yqj_ligand
   63    68     1     0     0
SMALL
GAST_HUCK


@<TRIPOS>ATOM
      1 C1         23.6430   14.9290   32.1010 C.ar      1 6NP         0.1281
      2 N1         22.4710   15.6330   32.1960 N.ar      1 6NP        -0.2680
      3 N2         21.3140   14.9480   32.2960 N.ar      1 6NP        -0.2675
      4 C2         21.1820   13.5710   32.3150 C.ar      1 6NP         0.0778
      5 C3         22.4790   12.7690   32.2120 C.ar      1 6NP         0.0507
      6 C5         22.5310   11.2510   32.2180 C.ar      1 6NP         0.0195
      7 C6         23.2230   10.5610   33.2370 C.ar      1 6NP        -0.0219
      8 C7         23.2490    9.1520   33.2260 C.ar      1 6NP         0.0136
      9 N3         22.6270    8.4090   32.2650 N.ar      1 6NP        -0.2954
     10 C8         21.9560    9.0690   31.2750 C.ar      1 6NP         0.0136
     11 C9         21.8880   10.4730   31.2180 C.ar      1 6NP        -0.0219
     12 C4         23.6570   13.5070   32.1080 C.ar      1 6NP         0.0265
     13 C10        27.8700   13.9630   30.4080 C.3       1 6NP         0.0260
     14 C11        26.8240   11.7310   29.7290 C.ar      1 6NP        -0.0601
     15 C12        26.5550   10.3600   29.9570 C.ar      1 6NP        -0.0686
     16 C13        27.0480    9.7340   31.1220 C.ar      1 6NP        -0.0687
     17 C14        27.8140   10.4800   32.0570 C.ar      1 6NP        -0.0686
     18 C15        28.0830   11.8510   31.8270 C.ar      1 6NP        -0.0601
     19 C16        27.5910   12.4930   30.6620 C.ar      1 6NP        -0.0376
     20 C17        19.8100   12.9610   32.4270 C.ar      1 6NP         0.0161
     21 C18        18.8840   13.1410   31.3700 C.ar      1 6NP        -0.0343
     22 C19        17.5850   12.5410   31.4540 C.ar      1 6NP        -0.0098
     23 C20        17.2100   11.7480   32.6140 C.ar      1 6NP        -0.0142
     24 C21        18.1480   11.5830   33.6660 C.ar      1 6NP        -0.0504
     25 C22        19.4290   12.1850   33.5640 C.ar      1 6NP        -0.0459
     26 C23        16.6480   12.7130   30.3860 C.ar      1 6NP        -0.0508
     27 C24        15.3620   12.1020   30.4710 C.ar      1 6NP        -0.0589
     28 C25        15.0030   11.3250   31.6110 C.ar      1 6NP        -0.0591
     29 C26        15.9170   11.1430   32.6880 C.ar      1 6NP        -0.0516
     30 C27        26.6020   14.8180   30.5590 C.3       1 6NP         0.0084
     31 C28        26.1720   15.0500   32.0230 C.3       1 6NP         0.0793
     32 N4         24.8320   15.6810   31.9890 N.pl3     1 6NP        -0.2723
     33 C29        24.7960   17.0030   31.3040 C.3       1 6NP         0.0746
     34 C30        25.4250   16.8890   29.8890 C.3       1 6NP        -0.0116
     35 N5         26.7050   16.1300   29.8820 N.4       1 6NP         0.2336
     36 H1         23.7303   11.1106   34.0216 H         1 6NP         0.0740
     37 H2         23.7858    8.6366   34.0142 H         1 6NP         0.0828
     38 H3         21.4580    8.4901   30.5056 H         1 6NP         0.0828
     39 H4         21.3471   10.9594   30.4143 H         1 6NP         0.0740
     40 H5         24.6043   12.9857   32.0308 H         1 6NP         0.0856
     41 H6         28.2591   14.0803   29.3858 H         1 6NP         0.0482
     42 H7         28.6232   14.3125   31.1294 H         1 6NP         0.0482
     43 H8         26.4426   12.2090   28.8340 H         1 6NP         0.0557
     44 H9         25.9726    9.7931   29.2396 H         1 6NP         0.0599
     45 H10        26.8423    8.6852   31.3029 H         1 6NP         0.0559
     46 H11        28.1942    9.9978   32.9503 H         1 6NP         0.0599
     47 H12        28.6684   12.4132   32.5456 H         1 6NP         0.0557
     48 H13        19.1566   13.7298   30.5017 H         1 6NP         0.0711
     49 H14        17.8875   11.0005   34.5423 H         1 6NP         0.0629
     50 H15        20.1389   12.0521   34.3724 H         1 6NP         0.0652
     51 H16        16.9142   13.3043   29.5173 H         1 6NP         0.0642
     52 H17        14.6518   12.2295   29.6621 H         1 6NP         0.0624
     53 H18        14.0218   10.8668   31.6588 H         1 6NP         0.0635
     54 H19        15.6357   10.5532   33.5529 H         1 6NP         0.0629
     55 H20        25.7921   14.2585   30.0680 H         1 6NP         0.0895
     56 H21        26.8894   15.7150   32.5261 H         1 6NP         0.0589
     57 H22        26.1236   14.0904   32.5586 H         1 6NP         0.0589
     58 H23        25.3641   17.7352   31.8965 H         1 6NP         0.0584
     59 H24        23.7519   17.3366   31.2120 H         1 6NP         0.0584
     60 H25        25.6164   17.9028   29.5076 H         1 6NP         0.0835
     61 H26        24.7103   16.3773   29.2277 H         1 6NP         0.0835
     62 H27        26.9826   15.9770   28.9251 H         1 6NP         0.2019
     63 H28        27.4072   16.6798   30.3518 H         1 6NP         0.2019
@<TRIPOS>BOND
     1    1    2 ar 
     2    1   12 ar 
     3   32    1 1  
     4    2    3 ar 
     5    3    4 ar 
     6    5    4 ar 
     7    4   20 1  
     8    5    6 1  
     9   12    5 ar 
    10    6    7 ar 
    11    6   11 ar 
    12    7    8 ar 
    13    8    9 ar 
    14   10    9 ar 
    15   11   10 ar 
    16   13   19 1  
    17   30   13 1  
    18   14   15 ar 
    19   19   14 ar 
    20   15   16 ar 
    21   17   16 ar 
    22   18   17 ar 
    23   19   18 ar 
    24   20   21 ar 
    25   20   25 ar 
    26   21   22 ar 
    27   22   23 ar 
    28   22   26 ar 
    29   24   23 ar 
    30   23   29 ar 
    31   25   24 ar 
    32   26   27 ar 
    33   27   28 ar 
    34   29   28 ar 
    35   31   30 1  
    36   30   35 1  
    37   31   32 1  
    38   32   33 1  
    39   33   34 1  
    40   34   35 1  
    41    7   36 1  
    42    8   37 1  
    43   10   38 1  
    44   11   39 1  
    45   12   40 1  
    46   13   41 1  
    47   13   42 1  
    48   14   43 1  
    49   15   44 1  
    50   16   45 1  
    51   17   46 1  
    52   18   47 1  
    53   21   48 1  
    54   24   49 1  
    55   25   50 1  
    56   26   51 1  
    57   27   52 1  
    58   28   53 1  
    59   29   54 1  
    60   30   55 1  
    61   31   56 1  
    62   31   57 1  
    63   33   58 1  
    64   33   59 1  
    65   34   60 1  
    66   34   61 1  
    67   35   62 1  
    68   35   63 1  
@<TRIPOS>SUBSTRUCTURE
     1 6NP         1

