### 
### Created by X-TOOL on Mon Sep 10 21:12:52 2018
### 

@<TRIPOS>MOLECULE
1yqy_ligand
   42    43     1     0     0
SMALL
GAST_HUCK


@<TRIPOS>ATOM
      1 C1          9.2270   20.0170   27.7680 C.ar      1 915         0.0976
      2 C2          8.2930   19.4750   28.7070 C.ar      1 915        -0.0357
      3 C3          8.0500   20.1670   29.9210 C.ar      1 915        -0.0105
      4 C4          8.7620   21.3710   30.1500 C.ar      1 915         0.1329
      5 C5          9.7370   21.8950   29.2310 C.ar      1 915        -0.0331
      6 C6          9.9470   21.2150   28.0390 C.ar      1 915        -0.0440
      7 F10         8.5230   22.0660   31.2740 F         1 915        -0.1891
      8 C11         7.0320   19.6580   30.9070 C.3       1 915        -0.0303
      9 S15         9.4700   19.1960   26.2210 S.o2      1 915         0.0671
     10 N16        10.4390   17.7900   26.5140 N.am      1 915        -0.2258
     11 C17        11.8990   17.9240   26.5070 C.3       1 915         0.1309
     12 C18        12.4690   18.4380   27.8460 C.2       1 915         0.2208
     13 N19        13.3900   19.4380   27.7230 N.am      1 915        -0.1627
     14 O20        13.9690   19.9520   28.8730 O.3       1 915        -0.2717
     15 O21        12.1600   17.9990   28.9170 O.2       1 915        -0.3949
     16 O22        10.3620   19.9620   25.4200 O.2       1 915        -0.1508
     17 O23         8.1790   18.7420   25.7310 O.2       1 915        -0.1508
     18 C27        12.6710   16.6260   26.2000 C.3       1 915         0.0000
     19 C29        12.3710   15.9420   24.8220 C.3       1 915        -0.0227
     20 C30        13.1600   14.6640   24.5620 C.3       1 915         0.0481
     21 O31        14.5420   14.9270   24.7000 O.3       1 915        -0.3797
     22 C32        14.9420   15.4300   25.9930 C.3       1 915         0.0481
     23 C33        14.2100   16.7480   26.3050 C.3       1 915        -0.0227
     24 H1          7.7770   18.5460   28.4929 H         1 915         0.0565
     25 H2         10.2926   22.7964   29.4630 H         1 915         0.0586
     26 H3         10.6585   21.5958   27.3153 H         1 915         0.0568
     27 H4          6.6017   18.7160   30.5364 H         1 915         0.0383
     28 H5          6.2326   20.4041   31.0269 H         1 915         0.0383
     29 H6          7.5180   19.4821   31.8780 H         1 915         0.0383
     30 H7         10.0102   16.9029   26.6848 H         1 915         0.1705
     31 H8         12.1418   18.6567   25.7233 H         1 915         0.0755
     32 H9         13.6417   19.7923   26.8224 H         1 915         0.2217
     33 H10        14.5854   20.6355   28.6376 H         1 915         0.2490
     34 H11        12.3530   15.9159   26.9775 H         1 915         0.0345
     35 H12        12.6089   16.6603   24.0236 H         1 915         0.0292
     36 H13        11.2993   15.6965   24.7871 H         1 915         0.0292
     37 H14        12.9547   14.3075   23.5418 H         1 915         0.0560
     38 H15        12.8593   13.8935   25.2871 H         1 915         0.0560
     39 H16        16.0273   15.6094   25.9925 H         1 915         0.0560
     40 H17        14.6937   14.6860   26.7642 H         1 915         0.0560
     41 H18        14.4678   17.0580   27.3284 H         1 915         0.0292
     42 H19        14.5500   17.5145   25.5930 H         1 915         0.0292
@<TRIPOS>BOND
     1    1    2 ar 
     2    1    6 ar 
     3    1    9 1  
     4    2    3 ar 
     5    3    4 ar 
     6    3    8 1  
     7    4    5 ar 
     8    4    7 1  
     9    5    6 ar 
    10    9   10 am 
    11    9   16 2  
    12    9   17 2  
    13   10   11 1  
    14   11   12 1  
    15   11   18 1  
    16   12   13 am 
    17   12   15 2  
    18   13   14 1  
    19   18   19 1  
    20   18   23 1  
    21   19   20 1  
    22   20   21 1  
    23   21   22 1  
    24   22   23 1  
    25    2   24 1  
    26    5   25 1  
    27    6   26 1  
    28    8   27 1  
    29    8   28 1  
    30    8   29 1  
    31   10   30 1  
    32   11   31 1  
    33   13   32 1  
    34   14   33 1  
    35   18   34 1  
    36   19   35 1  
    37   19   36 1  
    38   20   37 1  
    39   20   38 1  
    40   22   39 1  
    41   22   40 1  
    42   23   41 1  
    43   23   42 1  
@<TRIPOS>SUBSTRUCTURE
     1 915         1

