### 
### Created by X-TOOL on Tue Oct 16 15:17:23 2018
### 

@<TRIPOS>MOLECULE
1yrs_ligand
   37    39     1     0     0
SMALL
GAST_HUCK


@<TRIPOS>ATOM
      1 C1         21.5490   16.7560  105.7110 C.ar      1 L47        -0.0637
      2 C2         20.4050   16.5310  106.5710 C.ar      1 L47        -0.0557
      3 C3         20.4920   15.4440  107.5240 C.ar      1 L47         0.0036
      4 C4         21.6920   14.6120  107.5660 C.ar      1 L47         0.0460
      5 C5         22.8420   14.8360  106.7270 C.ar      1 L47        -0.0499
      6 C6         22.7420   15.9230  105.7940 C.ar      1 L47        -0.0637
      7 C11        19.3600   15.1910  108.4470 C.2       1 L47         0.0513
      8 N12        18.3190   16.0040  108.7290 N.2       1 L47        -0.1927
      9 N13        17.5130   15.5490  109.6220 N.am      1 L47        -0.1485
     10 C14        17.9310   14.2660  110.2210 C.3       1 L47         0.1213
     11 C15        18.9150   13.9500  109.1780 C.3       1 L47         0.0313
     12 C18        17.9530   13.8100  111.6170 C.ar      1 L47        -0.0174
     13 C20        16.3990   16.2400  109.9330 C.2       1 L47         0.2185
     14 C21        15.1760   15.3920  110.2650 C.3       1 L47         0.0336
     15 O25        16.3340   17.4660  109.8500 O.2       1 L47        -0.3829
     16 C26        19.0260   14.3150  112.4450 C.ar      1 L47        -0.0685
     17 C27        19.1140   13.9940  113.8490 C.ar      1 L47        -0.0771
     18 C28        18.0920   13.1280  114.3860 C.ar      1 L47        -0.0403
     19 C29        17.0420   12.5900  113.5480 C.ar      1 L47         0.0810
     20 C30        16.9390   12.9200  112.1470 C.ar      1 L47        -0.0296
     21 CL35       21.6320   13.2450  108.5950 Cl        1 L47        -0.0714
     22 O36        16.1370   11.7210  114.1150 O.3       1 L47        -0.3349
     23 H1         21.5168   17.5634  104.9884 H         1 L47         0.0612
     24 H2         19.5189   17.1518  106.5038 H         1 L47         0.0604
     25 H3         23.7310   14.2197  106.7962 H         1 L47         0.0616
     26 H4         23.5764   16.1296  105.1336 H         1 L47         0.0597
     27 H5         17.0876   13.6239  109.9271 H         1 L47         0.0829
     28 H6         19.7911   13.4760  109.6445 H         1 L47         0.0471
     29 H7         18.4614   13.2535  108.4575 H         1 L47         0.0471
     30 H8         14.3272   16.0500  110.5027 H         1 L47         0.0472
     31 H9         15.3978   14.7521  111.1318 H         1 L47         0.0472
     32 H10        14.9207   14.7622  109.4000 H         1 L47         0.0472
     33 H11        19.7829   14.9505  111.9997 H         1 L47         0.0465
     34 H12        19.9107   14.3851  114.4714 H         1 L47         0.0572
     35 H13        18.1113   12.8751  115.4399 H         1 L47         0.0485
     36 H14        16.1455   12.5234  111.5240 H         1 L47         0.0479
     37 H15        15.2601   12.0749  114.0241 H         1 L47         0.2479
@<TRIPOS>BOND
     1    1    2 ar 
     2    1    6 ar 
     3    2    3 ar 
     4    3    4 ar 
     5    3    7 1  
     6    4    5 ar 
     7    4   21 1  
     8    5    6 ar 
     9    7    8 2  
    10    7   11 1  
    11    8    9 1  
    12    9   10 1  
    13    9   13 am 
    14   10   11 1  
    15   10   12 1  
    16   12   16 ar 
    17   12   20 ar 
    18   13   14 1  
    19   13   15 2  
    20   16   17 ar 
    21   17   18 ar 
    22   18   19 ar 
    23   19   20 ar 
    24   19   22 1  
    25    1   23 1  
    26    2   24 1  
    27    5   25 1  
    28    6   26 1  
    29   10   27 1  
    30   11   28 1  
    31   11   29 1  
    32   14   30 1  
    33   14   31 1  
    34   14   32 1  
    35   16   33 1  
    36   17   34 1  
    37   18   35 1  
    38   20   36 1  
    39   22   37 1  
@<TRIPOS>SUBSTRUCTURE
     1 L47         1

