### 
### Created by X-TOOL on Mon Sep 10 21:12:53 2018
### 

@<TRIPOS>MOLECULE
1ysg_ligand
   24    25     1     0     0
SMALL
GAST_HUCK


@<TRIPOS>ATOM
      1 C1          3.9900   -9.7100   -4.7920 C.ar      1 4FC        -0.0267
      2 C2          3.3080   -8.7090   -5.4810 C.ar      1 4FC         0.1336
      3 C3          3.7180   -7.3810   -5.3630 C.ar      1 4FC        -0.0267
      4 C4          4.7950   -7.0610   -4.5610 C.ar      1 4FC        -0.0549
      5 C5          5.4700   -8.0650   -3.8760 C.ar      1 4FC        -0.0200
      6 C6          5.0680   -9.3840   -3.9950 C.ar      1 4FC        -0.0549
      7 C7          6.7230   -6.4450   -2.4590 C.ar      1 4FC        -0.0517
      8 C8          6.6150   -7.7250   -2.9850 C.ar      1 4FC        -0.0181
      9 C9          7.5650   -8.6900   -2.6800 C.ar      1 4FC        -0.0517
     10 C10         8.6280   -8.3760   -1.8540 C.ar      1 4FC        -0.0479
     11 C11         8.7420   -7.0920   -1.3260 C.ar      1 4FC         0.0093
     12 C12         7.7840   -6.1280   -1.6280 C.ar      1 4FC        -0.0479
     13 F1          2.2640   -9.0220   -6.2580 F         1 4FC        -0.1824
     14 C13         9.8720   -6.7560   -0.4460 C.2       1 4FC         0.0623
     15 O1         10.3970   -5.6660   -0.4920 O.co2     1 4FC        -0.5609
     16 O2         10.3140   -7.5660    0.3390 O.co2     1 4FC        -0.5609
     17 H1          3.6741  -10.7430   -4.8821 H         1 4FC         0.0607
     18 H2          3.1913   -6.6009   -5.9007 H         1 4FC         0.0607
     19 H3          5.1137   -6.0293   -4.4655 H         1 4FC         0.0619
     20 H4          5.6011  -10.1623   -3.4611 H         1 4FC         0.0619
     21 H5          5.9779   -5.6949   -2.6984 H         1 4FC         0.0624
     22 H6          7.4733   -9.6895   -3.0894 H         1 4FC         0.0624
     23 H7          9.3720   -9.1281   -1.6174 H         1 4FC         0.0649
     24 H8          7.8687   -5.1302   -1.2129 H         1 4FC         0.0649
@<TRIPOS>BOND
     1    1    2 ar 
     2    1    6 ar 
     3    1   17 1  
     4    2    3 ar 
     5    2   13 1  
     6    3    4 ar 
     7    3   18 1  
     8    4    5 ar 
     9    4   19 1  
    10    5    6 ar 
    11    5    8 1  
    12    6   20 1  
    13    8    7 ar 
    14    7   12 ar 
    15    7   21 1  
    16    8    9 ar 
    17    9   10 ar 
    18    9   22 1  
    19   10   11 ar 
    20   10   23 1  
    21   11   12 ar 
    22   11   14 1  
    23   12   24 1  
    24   14   15 ar 
    25   14   16 ar 
@<TRIPOS>SUBSTRUCTURE
     1 4FC         1

