### 
### Created by X-TOOL on Mon Sep 10 21:12:53 2018
### 

@<TRIPOS>MOLECULE
1ysi_ligand
   60    63     1     0     0
SMALL
GAST_HUCK


@<TRIPOS>ATOM
      1 C1          4.9210  -11.2230   -2.6550 C.ar      1 N3B        -0.0264
      2 C2          4.3900  -11.2030   -3.9410 C.ar      1 N3B         0.1339
      3 C3          4.8620  -10.2790   -4.8670 C.ar      1 N3B        -0.0264
      4 C4          5.8590   -9.3800   -4.5040 C.ar      1 N3B        -0.0544
      5 C5          6.3940   -9.3930   -3.2230 C.ar      1 N3B        -0.0190
      6 C6          5.9220  -10.3180   -2.3000 C.ar      1 N3B        -0.0544
      7 F7          3.4350  -12.0640   -4.2810 F         1 N3B        -0.1822
      8 C8          7.4380   -8.4570   -2.8600 C.ar      1 N3B        -0.0165
      9 C9          8.6360   -8.4580   -3.5570 C.ar      1 N3B        -0.0499
     10 C10         9.6530   -7.5650   -3.2230 C.ar      1 N3B        -0.0424
     11 C11         9.4780   -6.6580   -2.1830 C.ar      1 N3B         0.0503
     12 C12         8.2810   -6.6510   -1.4810 C.ar      1 N3B        -0.0424
     13 C13         7.2600   -7.5530   -1.8200 C.ar      1 N3B        -0.0499
     14 C14        10.5550   -5.7440   -1.8660 C.2       1 N3B         0.2239
     15 O15        11.5110   -5.6600   -2.6290 O.2       1 N3B        -0.3837
     16 N16        10.5540   -4.9760   -0.7620 N.am      1 N3B        -0.1547
     17 S17        11.9180   -3.8820   -0.4540 S.o2      1 N3B         0.0859
     18 C18        11.9410   -2.5710   -1.5860 C.ar      1 N3B         0.1081
     19 C19        10.9290   -1.6120   -1.5650 C.ar      1 N3B        -0.0029
     20 C20        10.9400   -0.5550   -2.4710 C.ar      1 N3B         0.2184
     21 C21        11.9640   -0.4440   -3.4090 C.ar      1 N3B         0.0837
     22 C22        12.9750   -1.4010   -3.4290 C.ar      1 N3B        -0.0333
     23 C23        12.9630   -2.4640   -2.5170 C.ar      1 N3B        -0.0409
     24 O24        13.1540   -4.5940   -0.5910 O.2       1 N3B        -0.1471
     25 O25        11.8170   -3.3590    0.8780 O.2       1 N3B        -0.1471
     26 N26         9.9220    0.3570   -2.4070 N.2       1 N3B         0.3063
     27 O27         9.0310    0.2340   -1.5700 O.2       1 N3B         0.1710
     28 O28         9.8260    1.3150   -3.1420 O.2       1 N3B         0.1710
     29 N29        12.0320    0.5920   -4.3460 N.pl3     1 N3B        -0.3152
     30 C30        13.0630    0.7830   -5.3530 C.3       1 N3B         0.0368
     31 C31        12.8460   -0.1700   -6.5450 C.3       1 N3B         0.0269
     32 S32        11.0930   -0.2530   -7.0140 S.3       1 N3B        -0.0997
     33 C33         9.9950   -1.2400   -6.1160 C.ar      1 N3B         0.0154
     34 C34         9.0780   -0.6440   -5.2570 C.ar      1 N3B        -0.0498
     35 C35         8.1950   -1.4320   -4.5290 C.ar      1 N3B        -0.0678
     36 C36         8.2280   -2.8150   -4.6610 C.ar      1 N3B        -0.0687
     37 C37         9.1450   -3.4100   -5.5200 C.ar      1 N3B        -0.0678
     38 C38        10.0280   -2.6230   -6.2480 C.ar      1 N3B        -0.0498
     39 H1          4.5572  -11.9413   -1.9293 H         1 N3B         0.0608
     40 H2          4.4532  -10.2595   -5.8708 H         1 N3B         0.0608
     41 H3          6.2225   -8.6611   -5.2294 H         1 N3B         0.0621
     42 H4          6.3341  -10.3368   -1.2975 H         1 N3B         0.0621
     43 H5          8.7836   -9.1600   -4.3697 H         1 N3B         0.0628
     44 H6         10.5849   -7.5775   -3.7766 H         1 N3B         0.0666
     45 H7          8.1340   -5.9477   -0.6693 H         1 N3B         0.0666
     46 H8          6.3275   -7.5441   -1.2673 H         1 N3B         0.0628
     47 H9          9.7898   -5.0208   -0.1186 H         1 N3B         0.2137
     48 H10        10.1284   -1.6900   -0.8384 H         1 N3B         0.0677
     49 H11        13.7763   -1.3230   -4.1548 H         1 N3B         0.0533
     50 H12        13.7543   -3.2046   -2.5391 H         1 N3B         0.0647
     51 H13        11.2752    1.2902   -4.3200 H         1 N3B         0.1789
     52 H14        14.0470    0.5816   -4.9046 H         1 N3B         0.0526
     53 H15        13.0292    1.8224   -5.7114 H         1 N3B         0.0526
     54 H16        13.1902   -1.1768   -6.2660 H         1 N3B         0.0421
     55 H17        13.4298    0.1921   -7.4041 H         1 N3B         0.0421
     56 H18         9.0521    0.4349   -5.1554 H         1 N3B         0.0565
     57 H19         7.4807   -0.9682   -3.8584 H         1 N3B         0.0600
     58 H20         7.5385   -3.4300   -4.0940 H         1 N3B         0.0559
     59 H21         9.1709   -4.4889   -5.6217 H         1 N3B         0.0600
     60 H22        10.7422   -3.0871   -6.9185 H         1 N3B         0.0565
@<TRIPOS>BOND
     1    1    2 ar 
     2    1    6 ar 
     3    2    3 ar 
     4    2    7 1  
     5    3    4 ar 
     6    4    5 ar 
     7    5    6 ar 
     8    5    8 1  
     9    8    9 ar 
    10    8   13 ar 
    11    9   10 ar 
    12   10   11 ar 
    13   11   12 ar 
    14   11   14 1  
    15   12   13 ar 
    16   14   15 2  
    17   14   16 am 
    18   16   17 am 
    19   17   18 1  
    20   17   24 2  
    21   17   25 2  
    22   18   19 ar 
    23   18   23 ar 
    24   19   20 ar 
    25   20   21 ar 
    26   20   26 1  
    27   21   22 ar 
    28   21   29 1  
    29   22   23 ar 
    30   26   27 2  
    31   26   28 2  
    32   29   30 1  
    33   30   31 1  
    34   31   32 1  
    35   32   33 1  
    36   33   34 ar 
    37   33   38 ar 
    38   34   35 ar 
    39   35   36 ar 
    40   36   37 ar 
    41   37   38 ar 
    42    1   39 1  
    43    3   40 1  
    44    4   41 1  
    45    6   42 1  
    46    9   43 1  
    47   10   44 1  
    48   12   45 1  
    49   13   46 1  
    50   16   47 1  
    51   19   48 1  
    52   22   49 1  
    53   23   50 1  
    54   29   51 1  
    55   30   52 1  
    56   30   53 1  
    57   31   54 1  
    58   31   55 1  
    59   34   56 1  
    60   35   57 1  
    61   36   58 1  
    62   37   59 1  
    63   38   60 1  
@<TRIPOS>SUBSTRUCTURE
     1 N3B         1

