### 
### Created by X-TOOL on Mon Sep 10 21:12:52 2018
### 

@<TRIPOS>MOLECULE
1yt7_ligand
   73    75     1     0     0
SMALL
GAST_HUCK


@<TRIPOS>ATOM
      1 C1         19.3300   52.5070  199.5170 C.3       1 3FC        -0.0653
      2 C2         18.5390   53.8240  199.5290 C.3       1 3FC        -0.0557
      3 C3         17.4430   53.7640  200.5930 C.3       1 3FC        -0.0491
      4 C4         17.2690   55.1640  201.2140 C.3       1 3FC        -0.0130
      5 C5         16.3930   55.0900  202.4800 C.3       1 3FC         0.1308
      6 N6         16.4730   53.7710  203.0110 N.am      1 3FC        -0.2416
      7 C7         17.3310   53.4680  204.0220 C.2       1 3FC         0.3223
      8 O8         18.1680   54.2930  204.4090 O.2       1 3FC        -0.3774
      9 O9         17.2460   52.2730  204.5870 O.3       1 3FC        -0.2568
     10 C10        17.9780   52.1410  205.7940 C.3       1 3FC         0.1119
     11 C11        18.8080   50.8590  205.6800 C.3       1 3FC         0.0757
     12 C12        19.9410   51.0820  204.7190 C.2       1 3FC         0.2128
     13 N13        19.8530   50.8590  203.3700 N.2       1 3FC        -0.2288
     14 N14        20.9630   51.1400  202.8650 N.2       1 3FC        -0.2218
     15 C15        21.7930   51.5120  203.8700 C.2       1 3FC         0.2423
     16 O16        21.1980   51.5470  205.1370 O.3       1 3FC        -0.1808
     17 C17        23.1750   51.8200  203.6890 C.ar      1 3FC         0.0692
     18 C18        23.9630   52.1020  204.8210 C.ar      1 3FC        -0.0192
     19 C19        25.3090   52.3310  204.6870 C.ar      1 3FC        -0.0329
     20 C20        25.9020   52.2990  203.4390 C.ar      1 3FC         0.0405
     21 C21        25.1290   52.0360  202.2880 C.ar      1 3FC        -0.0329
     22 C22        23.7590   51.8000  202.4120 C.ar      1 3FC        -0.0192
     23 C23        27.3720   52.5490  203.3190 C.3       1 3FC         0.3679
     24 F24        27.6930   52.8260  202.0220 F         1 3FC        -0.2296
     25 F25        28.0430   51.4440  203.7230 F         1 3FC        -0.2296
     26 F26        27.7180   53.5950  204.1100 F         1 3FC        -0.2296
     27 C27        16.9850   51.9760  206.9830 C.3       1 3FC        -0.0044
     28 C28        16.0370   50.7920  206.6840 C.3       1 3FC        -0.0572
     29 C29        16.1670   53.2570  207.1760 C.3       1 3FC        -0.0572
     30 C30        17.7520   51.6840  208.2690 C.3       1 3FC        -0.0572
     31 C33        14.6500   56.5430  201.1440 C.2       1 3FC         0.2905
     32 O34        15.2120   57.6210  201.3030 O.2       1 3FC        -0.3575
     33 N35        13.7390   56.3810  200.1350 N.am      1 3FC        -0.1675
     34 N36        13.7660   57.0920  199.0920 N.am      1 3FC        -0.1407
     35 C37        14.8410   57.0890  198.1800 C.3       1 3FC         0.0887
     36 C38        14.2770   58.0650  197.0740 C.3       1 3FC         0.0998
     37 O39        12.9540   58.4620  197.5850 O.3       1 3FC        -0.2603
     38 C40        12.7900   57.8320  198.7420 C.2       1 3FC         0.3445
     39 O41        11.7780   57.9510  199.4260 O.2       1 3FC        -0.3761
     40 C31        14.9770   55.3350  202.0590 C.2       1 3FC         0.2386
     41 O32        14.0550   54.3550  202.2240 O.2       1 3FC        -0.3478
     42 H1         20.1161   52.5584  198.7492 H         1 3FC         0.0230
     43 H2         18.6499   51.6728  199.2901 H         1 3FC         0.0230
     44 H3         19.7905   52.3468  200.5030 H         1 3FC         0.0230
     45 H4         18.0804   53.9829  198.5419 H         1 3FC         0.0263
     46 H5         19.2211   54.6569  199.7548 H         1 3FC         0.0263
     47 H6         17.7282   53.0461  201.3761 H         1 3FC         0.0267
     48 H7         16.4971   53.4456  200.1305 H         1 3FC         0.0267
     49 H8         16.7887   55.8280  200.4802 H         1 3FC         0.0313
     50 H9         18.2572   55.5665  201.4811 H         1 3FC         0.0313
     51 H10        16.7169   55.8312  203.2255 H         1 3FC         0.0795
     52 H11        15.8872   53.0539  202.6334 H         1 3FC         0.1900
     53 H12        18.6263   53.0153  205.9530 H         1 3FC         0.0687
     54 H13        18.1710   50.0408  205.3128 H         1 3FC         0.0580
     55 H14        19.2118   50.5941  206.6683 H         1 3FC         0.0580
     56 H15        23.5044   52.1383  205.8025 H         1 3FC         0.0717
     57 H16        25.9106   52.5381  205.5646 H         1 3FC         0.0837
     58 H17        25.5977   52.0173  201.3108 H         1 3FC         0.0837
     59 H18        23.1538   51.6039  201.5343 H         1 3FC         0.0717
     60 H19        15.3314   50.6675  207.5186 H         1 3FC         0.0236
     61 H20        16.6269   49.8716  206.5622 H         1 3FC         0.0236
     62 H21        15.4780   50.9945  205.7585 H         1 3FC         0.0236
     63 H22        16.8452   54.0966  207.3884 H         1 3FC         0.0236
     64 H23        15.4720   53.1249  208.0184 H         1 3FC         0.0236
     65 H24        15.5965   53.4693  206.2598 H         1 3FC         0.0236
     66 H25        18.3437   50.7654  208.1424 H         1 3FC         0.0236
     67 H26        17.0411   51.5509  209.0978 H         1 3FC         0.0236
     68 H27        18.4243   52.5251  208.4940 H         1 3FC         0.0236
     69 H28        13.0321   55.6796  200.2267 H         1 3FC         0.2181
     70 H29        15.0297   56.0831  197.7769 H         1 3FC         0.0572
     71 H30        15.7625   57.4801  198.6360 H         1 3FC         0.0572
     72 H31        14.1831   57.5475  196.1079 H         1 3FC         0.0632
     73 H32        14.9300   58.9425  196.9580 H         1 3FC         0.0632
@<TRIPOS>BOND
     1    2    1 1  
     2    3    2 1  
     3    4    3 1  
     4    5    4 1  
     5    5    6 1  
     6   40    5 1  
     7    6    7 am 
     8    7    8 2  
     9    7    9 1  
    10    9   10 1  
    11   10   11 1  
    12   10   27 1  
    13   11   12 1  
    14   12   13 2  
    15   12   16 1  
    16   13   14 1  
    17   15   14 2  
    18   16   15 1  
    19   15   17 1  
    20   17   18 ar 
    21   17   22 ar 
    22   18   19 ar 
    23   19   20 ar 
    24   21   20 ar 
    25   20   23 1  
    26   22   21 ar 
    27   23   24 1  
    28   23   25 1  
    29   23   26 1  
    30   27   28 1  
    31   27   29 1  
    32   27   30 1  
    33   31   32 2  
    34   31   33 am 
    35   31   40 1  
    36   33   34 1  
    37   34   35 1  
    38   34   38 am 
    39   35   36 1  
    40   36   37 1  
    41   37   38 1  
    42   38   39 2  
    43   40   41 2  
    44    1   42 1  
    45    1   43 1  
    46    1   44 1  
    47    2   45 1  
    48    2   46 1  
    49    3   47 1  
    50    3   48 1  
    51    4   49 1  
    52    4   50 1  
    53    5   51 1  
    54    6   52 1  
    55   10   53 1  
    56   11   54 1  
    57   11   55 1  
    58   18   56 1  
    59   19   57 1  
    60   21   58 1  
    61   22   59 1  
    62   28   60 1  
    63   28   61 1  
    64   28   62 1  
    65   29   63 1  
    66   29   64 1  
    67   29   65 1  
    68   30   66 1  
    69   30   67 1  
    70   30   68 1  
    71   33   69 1  
    72   35   70 1  
    73   35   71 1  
    74   36   72 1  
    75   36   73 1  
@<TRIPOS>SUBSTRUCTURE
     1 3FC         1

