### 
### Created by X-TOOL on Mon Sep 10 21:12:53 2018
### 

@<TRIPOS>MOLECULE
1yt9_ligand
   94    97     1     0     0
SMALL
GAST_HUCK


@<TRIPOS>ATOM
      1 N6          6.3730   29.4830    8.2730 N.2       1 OIS        -0.1523
      2 N1         15.2770   22.0870    5.0540 N.am      1 OIS        -0.2775
      3 C2         14.3030   23.0320    5.6630 C.3       1 OIS         0.0789
      4 N2         11.4640   24.3210    5.3300 N.am      1 OIS        -0.2314
      5 N3         19.6790   17.7690    9.3510 N.2       1 OIS        -0.3162
      6 C4         14.9740   23.6050    6.9410 C.3       1 OIS         0.0064
      7 N4         16.8520   19.3490    5.2390 N.am      1 OIS        -0.2356
      8 C5         12.7340   25.0610    5.2490 C.3       1 OIS         0.0579
      9 C6         16.3560   18.3530    6.2030 C.3       1 OIS         0.0573
     10 O1         14.9120   24.9260    4.2720 O.3       1 OIS        -0.3877
     11 O2          9.7350   23.1750    6.7810 O.2       1 OIS        -0.1503
     12 O3         11.7500   24.0110    7.8670 O.2       1 OIS        -0.1503
     13 O4         13.7500   20.3470    4.9130 O.2       1 OIS        -0.3945
     14 C1         14.8870   20.8020    4.7380 C.2       1 OIS         0.2023
     15 C3         13.8230   24.1230    4.6640 C.3       1 OIS         0.0968
     16 C7         10.6970   23.6990    3.0050 C.3       1 OIS        -0.0296
     17 C8         10.5340   24.6010    4.2430 C.3       1 OIS         0.0320
     18 S1         10.6920   24.2350    6.9280 S.o2      1 OIS         0.0701
     19 C11        15.4670   22.5430    7.8850 C.ar      1 OIS        -0.0408
     20 C12        16.8390   22.4820    8.2150 C.ar      1 OIS        -0.0603
     21 C13        17.3180   21.4890    9.0850 C.ar      1 OIS        -0.0686
     22 C14        16.4460   20.5350    9.6420 C.ar      1 OIS        -0.0687
     23 C15        15.0690   20.5820    9.3210 C.ar      1 OIS        -0.0686
     24 C16        14.5850   21.5820    8.4460 C.ar      1 OIS        -0.0603
     25 C17         9.6880   24.0850    1.9260 C.3       1 OIS        -0.0612
     26 C18        10.5030   22.2250    3.3860 C.3       1 OIS        -0.0612
     27 C19        16.0070   19.8880    4.1370 C.3       1 OIS         0.1363
     28 C20        18.1460   19.6980    5.4850 C.2       1 OIS         0.2665
     29 C21        15.4000   18.7080    3.3060 C.3       1 OIS        -0.0063
     30 C22        14.5110   19.1900    2.1480 C.3       1 OIS        -0.0584
     31 C23        16.5090   17.8060    2.7270 C.3       1 OIS        -0.0584
     32 N5         18.5880   19.0060    6.5610 N.am      1 OIS        -0.2482
     33 O5         18.8230   20.5030    4.8510 O.2       1 OIS        -0.4002
     34 C31        17.5590   18.1150    7.1140 C.3       1 OIS         0.0564
     35 C32         8.4480   25.8550    6.9890 C.ar      1 OIS        -0.0361
     36 C34         7.7120   26.9860    7.4070 C.ar      1 OIS        -0.0536
     37 C35         8.3140   27.9420    8.2650 C.ar      1 OIS        -0.0122
     38 C36         9.6530   27.7550    8.6980 C.ar      1 OIS        -0.0536
     39 C37        10.3850   26.6230    8.2800 C.ar      1 OIS        -0.0361
     40 C38         9.7840   25.6760    7.4280 C.ar      1 OIS         0.1070
     41 C40         7.5860   29.1260    8.7280 C.2       1 OIS         0.0450
     42 C10        19.9500   19.1240    7.1220 C.3       1 OIS         0.0650
     43 C24        20.0250   18.9940    8.6170 C.2       1 OIS         0.0075
     44 C9         20.4210   19.9790    9.4390 C.2       1 OIS        -0.0033
     45 C28        19.8350   17.9130   10.6740 C.2       1 OIS         0.0854
     46 S2         20.4090   19.5340   11.1270 S.3       1 OIS        -0.0204
     47 O7          5.7700   30.6300    8.7830 O.3       1 OIS        -0.2481
     48 C25        19.5590   16.8170   11.7020 C.3       1 OIS         0.0060
     49 H1         16.2149   22.3833    4.8736 H         1 OIS         0.1857
     50 H2         13.4130   22.4628    5.9694 H         1 OIS         0.0605
     51 H3         14.2389   24.2284    7.4710 H         1 OIS         0.0449
     52 H4         15.8298   24.2256    6.6370 H         1 OIS         0.0449
     53 H5         13.0332   25.3930    6.2541 H         1 OIS         0.0504
     54 H6         12.6105   25.9369    4.5951 H         1 OIS         0.0504
     55 H7         16.0586   17.4250    5.6928 H         1 OIS         0.0541
     56 H8         15.5022   18.7478    6.7732 H         1 OIS         0.0541
     57 H9         14.6242   25.5495    3.6156 H         1 OIS         0.2100
     58 H10        13.4092   23.6170    3.7793 H         1 OIS         0.0634
     59 H11        11.7129   23.8314    2.6046 H         1 OIS         0.0311
     60 H12        10.6804   25.6446    3.9276 H         1 OIS         0.0480
     61 H13         9.5109   24.4739    4.6266 H         1 OIS         0.0480
     62 H14        17.5268   23.2064    7.7940 H         1 OIS         0.0557
     63 H15        18.3733   21.4569    9.3307 H         1 OIS         0.0599
     64 H16        16.8260   19.7712   10.3108 H         1 OIS         0.0559
     65 H17        14.3869   19.8537    9.7445 H         1 OIS         0.0599
     66 H18        13.5296   21.6152    8.2010 H         1 OIS         0.0557
     67 H19         9.8189   23.4314    1.0509 H         1 OIS         0.0233
     68 H20         9.8506   25.1317    1.6294 H         1 OIS         0.0233
     69 H21         8.6675   23.9699    2.3202 H         1 OIS         0.0233
     70 H22        11.2305   21.9484    4.1633 H         1 OIS         0.0233
     71 H23        10.6568   21.5936    2.4985 H         1 OIS         0.0233
     72 H24         9.4827   22.0765    3.7693 H         1 OIS         0.0233
     73 H25        16.6360   20.4966    3.4707 H         1 OIS         0.0802
     74 H26        14.7802   18.1056    3.9864 H         1 OIS         0.0342
     75 H27        14.1150   18.3203    1.6032 H         1 OIS         0.0234
     76 H28        15.1062   19.8118    1.4630 H         1 OIS         0.0234
     77 H29        13.6757   19.7827    2.5491 H         1 OIS         0.0234
     78 H30        17.1561   17.4511    3.5427 H         1 OIS         0.0234
     79 H31        17.1095   18.3801    2.0060 H         1 OIS         0.0234
     80 H32        16.0525   16.9435    2.2195 H         1 OIS         0.0234
     81 H33        17.8835   17.0649    7.0708 H         1 OIS         0.0541
     82 H34        17.3239   18.3837    8.1544 H         1 OIS         0.0541
     83 H35         7.9910   25.1237    6.3323 H         1 OIS         0.0633
     84 H36         6.6899   27.1230    7.0730 H         1 OIS         0.0611
     85 H37        10.1153   28.4849    9.3526 H         1 OIS         0.0611
     86 H38        11.4068   26.4828    8.6137 H         1 OIS         0.0633
     87 H39         8.0550   29.7532    9.4847 H         1 OIS         0.0776
     88 H40        20.3517   20.1093    6.8429 H         1 OIS         0.0654
     89 H41        20.5736   18.3344    6.6774 H         1 OIS         0.0654
     90 H42        20.7218   20.9641    9.0855 H         1 OIS         0.0503
     91 H43         6.3221   31.3824    8.6054 H         1 OIS         0.2840
     92 H44        19.2152   15.9084   11.1859 H         1 OIS         0.0486
     93 H45        18.7814   17.1577   12.4015 H         1 OIS         0.0486
     94 H46        20.4816   16.5956   12.2587 H         1 OIS         0.0486
@<TRIPOS>BOND
     1   41    1 2  
     2    1   47 1  
     3    2    3 1  
     4   14    2 am 
     5    3    6 1  
     6    3   15 1  
     7    8    4 1  
     8    4   17 1  
     9    4   18 am 
    10   43    5 1  
    11    5   45 2  
    12    6   19 1  
    13    9    7 1  
    14    7   27 1  
    15   28    7 am 
    16   15    8 1  
    17   34    9 1  
    18   15   10 1  
    19   18   11 2  
    20   18   12 2  
    21   14   13 2  
    22   27   14 1  
    23   17   16 1  
    24   16   25 1  
    25   16   26 1  
    26   18   40 1  
    27   19   20 ar 
    28   19   24 ar 
    29   20   21 ar 
    30   21   22 ar 
    31   23   22 ar 
    32   24   23 ar 
    33   27   29 1  
    34   32   28 am 
    35   28   33 2  
    36   29   30 1  
    37   29   31 1  
    38   32   34 1  
    39   42   32 1  
    40   35   36 ar 
    41   40   35 ar 
    42   36   37 ar 
    43   38   37 ar 
    44   37   41 1  
    45   39   38 ar 
    46   40   39 ar 
    47   42   43 1  
    48   43   44 2  
    49   44   46 1  
    50   45   46 1  
    51   45   48 1  
    52    2   49 1  
    53    3   50 1  
    54    6   51 1  
    55    6   52 1  
    56    8   53 1  
    57    8   54 1  
    58    9   55 1  
    59    9   56 1  
    60   10   57 1  
    61   15   58 1  
    62   16   59 1  
    63   17   60 1  
    64   17   61 1  
    65   20   62 1  
    66   21   63 1  
    67   22   64 1  
    68   23   65 1  
    69   24   66 1  
    70   25   67 1  
    71   25   68 1  
    72   25   69 1  
    73   26   70 1  
    74   26   71 1  
    75   26   72 1  
    76   27   73 1  
    77   29   74 1  
    78   30   75 1  
    79   30   76 1  
    80   30   77 1  
    81   31   78 1  
    82   31   79 1  
    83   31   80 1  
    84   34   81 1  
    85   34   82 1  
    86   35   83 1  
    87   36   84 1  
    88   38   85 1  
    89   39   86 1  
    90   41   87 1  
    91   42   88 1  
    92   42   89 1  
    93   44   90 1  
    94   47   91 1  
    95   48   92 1  
    96   48   93 1  
    97   48   94 1  
@<TRIPOS>SUBSTRUCTURE
     1 OIS         1

