### 
### Created by X-TOOL on Mon Sep 10 21:12:53 2018
### 

@<TRIPOS>MOLECULE
1yvf_ligand
   43    45     1     0     0
SMALL
GAST_HUCK


@<TRIPOS>ATOM
      1 C1         -9.7390   55.1170   46.8920 C.2       1 PH7        -0.0474
      2 C2         -8.6220   54.7640   47.5790 C.2       1 PH7         0.1049
      3 N          -8.4650   54.7280   49.0400 N.am      1 PH7        -0.2217
      4 C          -8.1780   55.8220   49.8020 C.2       1 PH7         0.2403
      5 O          -8.0570   56.9560   49.3420 O.2       1 PH7        -0.3688
      6 CB2       -11.0380   55.6110   47.3820 C.ar      1 PH7        -0.0594
      7 CB3       -12.1670   55.7430   46.5440 C.ar      1 PH7        -0.0732
      8 CB6       -13.4320   56.7680   48.3780 C.ar      1 PH7         0.1110
      9 CB1       -11.1450   56.0490   48.6910 C.ar      1 PH7        -0.0732
     10 CB5       -12.3060   56.6130   49.1890 C.ar      1 PH7        -0.0349
     11 CA1       -14.8120   57.5690   50.2350 C.ar      1 PH7         0.1249
     12 CA2       -14.5710   58.8680   50.7250 C.ar      1 PH7         0.0449
     13 CA3       -14.8090   59.1780   52.0930 C.ar      1 PH7        -0.0602
     14 CA4       -15.3330   58.1950   52.9560 C.ar      1 PH7        -0.0695
     15 CA5       -15.6200   56.9020   52.4720 C.ar      1 PH7        -0.0670
     16 CA6       -15.3480   56.5970   51.1260 C.ar      1 PH7        -0.0258
     17 CD2        -7.4500   54.2820   46.7960 C.2       1 PH7         0.0956
     18 OC1        -7.4970   54.3880   45.5530 O.co2     1 PH7        -0.5557
     19 OC2        -6.4910   53.7290   47.3780 O.co2     1 PH7        -0.5557
     20 CC1        -8.0460   55.5360   51.2270 C.ar      1 PH7         0.0580
     21 CC2        -7.2720   56.3900   52.0390 C.ar      1 PH7        -0.0414
     22 CC3        -7.3110   56.2440   53.4370 C.ar      1 PH7        -0.0562
     23 CC4        -8.1280   55.2410   54.0210 C.ar      1 PH7        -0.0576
     24 CC5        -8.8600   54.3440   53.2080 C.ar      1 PH7        -0.0562
     25 CC6        -8.8010   54.4780   51.8090 C.ar      1 PH7        -0.0414
     26 CB4       -13.3460   56.3600   47.0400 C.ar      1 PH7        -0.0349
     27 OAB       -14.6120   57.2860   48.8730 O.3       1 PH7        -0.2596
     28 BRA2      -14.0950   60.2100   49.5160 Br        1 PH7        -0.0570
     29 H1         -9.6629   55.0198   45.8100 H         1 PH7         0.0302
     30 H2         -8.5753   53.8485   49.5030 H         1 PH7         0.2367
     31 H3        -12.1338   55.3744   45.5251 H         1 PH7         0.0526
     32 H4        -10.2893   55.9465   49.3486 H         1 PH7         0.0526
     33 H5        -12.3420   56.9388   50.2223 H         1 PH7         0.0540
     34 H6        -14.5874   60.1695   52.4711 H         1 PH7         0.0617
     35 H7        -15.5164   58.4340   53.9973 H         1 PH7         0.0534
     36 H8        -16.0451   56.1521   53.1293 H         1 PH7         0.0614
     37 H9        -15.5515   55.5977   50.7585 H         1 PH7         0.0559
     38 H10        -6.6503   57.1550   51.5881 H         1 PH7         0.0669
     39 H11        -6.7180   56.8964   54.0677 H         1 PH7         0.0629
     40 H12        -8.1917   55.1615   55.1002 H         1 PH7         0.0652
     41 H13        -9.4601   53.5616   53.6584 H         1 PH7         0.0629
     42 H14        -9.3299   53.7763   51.1742 H         1 PH7         0.0669
     43 H15       -14.1887   56.5171   46.3764 H         1 PH7         0.0540
@<TRIPOS>BOND
     1    1    2 2  
     2    6    1 1  
     3    2    3 1  
     4    2   17 1  
     5    3    4 am 
     6    4    5 2  
     7    4   20 1  
     8    7    6 ar 
     9    9    6 ar 
    10   26    7 ar 
    11    8   10 ar 
    12    8   26 ar 
    13   27    8 1  
    14   10    9 ar 
    15   11   12 ar 
    16   11   16 ar 
    17   11   27 1  
    18   12   13 ar 
    19   12   28 1  
    20   13   14 ar 
    21   14   15 ar 
    22   15   16 ar 
    23   17   18 ar 
    24   17   19 ar 
    25   20   21 ar 
    26   20   25 ar 
    27   21   22 ar 
    28   22   23 ar 
    29   23   24 ar 
    30   24   25 ar 
    31    1   29 1  
    32    3   30 1  
    33    7   31 1  
    34    9   32 1  
    35   10   33 1  
    36   13   34 1  
    37   14   35 1  
    38   15   36 1  
    39   16   37 1  
    40   21   38 1  
    41   22   39 1  
    42   23   40 1  
    43   24   41 1  
    44   25   42 1  
    45   26   43 1  
@<TRIPOS>SUBSTRUCTURE
     1 PH7         1

