### 
### Created by X-TOOL on Mon Sep 10 21:12:52 2018
### 

@<TRIPOS>MOLECULE
1yvm_ligand
   21    23     1     0     0
SMALL
GAST_HUCK


@<TRIPOS>ATOM
      1 C2         24.3470  -13.3850    8.3080 C.ar      1 TMG         0.0276
      2 N7         23.4390  -12.5440    7.7850 N.2       1 TMG        -0.3130
      3 C9         23.8060  -12.1770    6.6060 C.2       1 TMG         0.1386
      4 C10        23.0280  -11.1420    5.9250 C.2       1 TMG         0.0861
      5 C14        23.2390  -10.5820    4.7340 C.2       1 TMG         0.0406
      6 S13        21.8550   -9.5470    4.2350 S.3       1 TMG         0.0084
      7 C12        21.0430   -9.9820    5.7590 C.2       1 TMG         0.0809
      8 N11        21.7110  -10.8240    6.4160 N.2       1 TMG        -0.2944
      9 N8         25.0730  -12.5300    6.3060 N.pl3     1 TMG        -0.2517
     10 C6         25.3600  -13.4290    7.3620 C.ar      1 TMG         0.0796
     11 C5         26.5590  -14.0800    7.6270 C.ar      1 TMG        -0.0405
     12 C4         26.5570  -14.8640    8.7870 C.ar      1 TMG        -0.0753
     13 C3         25.5010  -14.8700    9.7140 C.ar      1 TMG        -0.0771
     14 C1         24.3470  -14.1140    9.4900 C.ar      1 TMG        -0.0628
     15 H1         24.1375  -10.7324    4.1373 H         1 TMG         0.0905
     16 H2         20.0878   -9.5712    6.0827 H         1 TMG         0.1186
     17 H3         25.6693  -12.2279    5.5223 H         1 TMG         0.2292
     18 H4         27.4280  -13.9879    6.9856 H         1 TMG         0.0543
     19 H5         27.4141  -15.4990    8.9799 H         1 TMG         0.0538
     20 H6         25.5824  -15.4685   10.6141 H         1 TMG         0.0521
     21 H7         23.5157  -14.0979   10.1856 H         1 TMG         0.0545
@<TRIPOS>BOND
     1    1    2 1  
     2    1   10 ar 
     3    1   14 ar 
     4    2    3 2  
     5    3    4 1  
     6    3    9 1  
     7    4    5 2  
     8    4    8 1  
     9    5    6 1  
    10    6    7 1  
    11    7    8 2  
    12    9   10 1  
    13   10   11 ar 
    14   11   12 ar 
    15   12   13 ar 
    16   13   14 ar 
    17    5   15 1  
    18    7   16 1  
    19    9   17 1  
    20   11   18 1  
    21   12   19 1  
    22   13   20 1  
    23   14   21 1  
@<TRIPOS>SUBSTRUCTURE
     1 TMG         1

