### 
### Created by X-TOOL on Mon Sep 10 21:12:53 2018
### 

@<TRIPOS>MOLECULE
1yvx_ligand
   47    49     1     0     0
SMALL
GAST_HUCK


@<TRIPOS>ATOM
      1 N1         27.7900   62.0080    6.3650 N.am      1 IPC        -0.2266
      2 C2         28.2940   63.5880    6.3370 C.3       1 IPC         0.0574
      3 C3         27.3210   64.6040    5.8580 C.3       1 IPC        -0.0374
      4 C4         29.6770   63.8960    5.5940 C.3       1 IPC        -0.0374
      5 C5         27.0760   61.5350    7.5260 C.2       1 IPC         0.2264
      6 O6         26.8030   62.2840    8.5800 O.2       1 IPC        -0.3777
      7 C7         26.4790   59.9780    7.7510 C.ar      1 IPC         0.0483
      8 C8         26.8240   59.3180    9.0430 C.ar      1 IPC        -0.0481
      9 C9         26.1980   57.8900    9.0800 C.ar      1 IPC        -0.0547
     10 C10        25.3680   57.3300    7.9120 C.ar      1 IPC        -0.0414
     11 C11        25.1720   58.1300    6.7860 C.ar      1 IPC        -0.0547
     12 C12        25.7130   59.4140    6.7170 C.ar      1 IPC        -0.0481
     13 C13        24.7540   55.9540    7.9250 C.3       1 IPC        -0.0289
     14 C14        28.0680   61.2510    5.3110 C.2       1 IPC         0.0688
     15 C15        29.1490   60.1770    5.3060 C.2       1 IPC         0.0687
     16 S16        29.3020   59.3500    3.8670 S.3       1 IPC        -0.0496
     17 C17        28.0420   60.2470    3.1100 C.2       1 IPC         0.0346
     18 C18        27.5040   61.2050    4.0140 C.2       1 IPC        -0.0315
     19 C19        30.0690   59.7890    6.4320 C.2       1 IPC         0.0491
     20 O20        30.9970   58.8370    6.3550 O.co2     1 IPC        -0.5724
     21 O21        29.9740   60.3910    7.5260 O.co2     1 IPC        -0.5724
     22 C22        27.6430   59.9980    1.7360 C.ar      1 IPC        -0.0083
     23 C23        28.3150   58.9550    0.9320 C.ar      1 IPC        -0.0541
     24 C24        27.9130   58.7100   -0.4370 C.ar      1 IPC        -0.0621
     25 C25        26.8450   59.4860   -1.0370 C.ar      1 IPC        -0.0626
     26 C26        26.1670   60.5150   -0.2720 C.ar      1 IPC        -0.0621
     27 C27        26.5160   60.8020    1.0720 C.ar      1 IPC        -0.0541
     28 H1         28.4685   63.8227    7.3974 H         1 IPC         0.0610
     29 H2         27.7850   65.6008    5.8922 H         1 IPC         0.0256
     30 H3         26.4304   64.5918    6.5035 H         1 IPC         0.0256
     31 H4         27.0274   64.3716    4.8237 H         1 IPC         0.0256
     32 H5         29.8909   64.9736    5.6494 H         1 IPC         0.0256
     33 H6         29.6029   63.5907    4.5398 H         1 IPC         0.0256
     34 H7         30.4881   63.3356    6.0819 H         1 IPC         0.0256
     35 H8         27.4178   59.7619    9.8338 H         1 IPC         0.0652
     36 H9         26.3527   57.2721    9.9571 H         1 IPC         0.0570
     37 H10        24.5916   57.7488    5.9536 H         1 IPC         0.0570
     38 H11        25.5342   60.0034    5.8250 H         1 IPC         0.0652
     39 H12        24.9971   55.4530    8.8736 H         1 IPC         0.0401
     40 H13        25.1548   55.3657    7.0864 H         1 IPC         0.0401
     41 H14        23.6619   56.0388    7.8245 H         1 IPC         0.0401
     42 H15        26.6949   61.8725    3.7211 H         1 IPC         0.0444
     43 H16        29.1147   58.3694    1.3709 H         1 IPC         0.0617
     44 H17        28.4130   57.9424   -1.0166 H         1 IPC         0.0615
     45 H18        26.5517   59.2960   -2.0631 H         1 IPC         0.0610
     46 H19        25.3705   61.0810   -0.7413 H         1 IPC         0.0615
     47 H20        25.9951   61.5772    1.6223 H         1 IPC         0.0617
@<TRIPOS>BOND
     1    1    2 1  
     2    1    5 am 
     3    1   14 1  
     4    2    3 1  
     5    2    4 1  
     6    5    6 2  
     7    5    7 1  
     8    7    8 ar 
     9    7   12 ar 
    10    8    9 ar 
    11    9   10 ar 
    12   10   11 ar 
    13   10   13 1  
    14   11   12 ar 
    15   14   15 2  
    16   14   18 1  
    17   15   16 1  
    18   15   19 1  
    19   16   17 1  
    20   17   18 2  
    21   17   22 1  
    22   19   20 ar 
    23   19   21 ar 
    24   22   23 ar 
    25   22   27 ar 
    26   23   24 ar 
    27   24   25 ar 
    28   25   26 ar 
    29   26   27 ar 
    30    2   28 1  
    31    3   29 1  
    32    3   30 1  
    33    3   31 1  
    34    4   32 1  
    35    4   33 1  
    36    4   34 1  
    37    8   35 1  
    38    9   36 1  
    39   11   37 1  
    40   12   38 1  
    41   13   39 1  
    42   13   40 1  
    43   13   41 1  
    44   18   42 1  
    45   23   43 1  
    46   24   44 1  
    47   25   45 1  
    48   26   46 1  
    49   27   47 1  
@<TRIPOS>SUBSTRUCTURE
     1 IPC         1

