### 
### Created by X-TOOL on Mon Sep 10 21:12:53 2018
### 

@<TRIPOS>MOLECULE
1yvz_ligand
   44    46     1     0     0
SMALL
GAST_HUCK


@<TRIPOS>ATOM
      1 N1         28.1040   61.9480    6.2000 N.am      1 JPC        -0.2257
      2 C2         28.5780   63.4150    6.2070 C.3       1 JPC         0.0575
      3 C3         27.5960   64.3760    5.4850 C.3       1 JPC        -0.0374
      4 C4         29.9970   63.6320    5.5630 C.3       1 JPC        -0.0374
      5 C5         27.1530   61.6390    7.2440 C.2       1 JPC         0.2316
      6 O6         26.7550   62.4620    8.0690 O.2       1 JPC        -0.3747
      7 C7         26.5570   60.2320    7.4010 C.ar      1 JPC         0.0691
      8 C8         27.0630   59.4210    8.4760 C.ar      1 JPC        -0.0409
      9 C9         26.5680   58.0920    8.6890 C.ar      1 JPC        -0.0423
     10 C10        25.5550   57.5590    7.8230 C.ar      1 JPC         0.0454
     11 C11        25.0290   58.3560    6.7370 C.ar      1 JPC        -0.0284
     12 C12        25.5110   59.6950    6.5090 C.ar      1 JPC         0.0613
     13 CL13       24.9750   55.9800    8.0800 Cl        1 JPC        -0.0667
     14 CL14       24.8250   60.6100    5.1730 Cl        1 JPC        -0.0648
     15 C15        28.5820   60.9860    5.2270 C.2       1 JPC         0.0690
     16 C16        29.5650   59.9880    5.3370 C.2       1 JPC         0.0688
     17 S17        29.8030   59.0740    3.9120 S.3       1 JPC        -0.0495
     18 C18        28.6120   59.9420    3.0480 C.2       1 JPC         0.0346
     19 C19        28.0770   60.9030    3.8850 C.2       1 JPC        -0.0314
     20 C20        30.3780   59.6860    6.5550 C.2       1 JPC         0.0492
     21 O21        31.2080   58.7760    6.4830 O.co2     1 JPC        -0.5724
     22 O22        30.1540   60.3840    7.5640 O.co2     1 JPC        -0.5724
     23 C23        28.2350   59.6870    1.6280 C.ar      1 JPC        -0.0083
     24 C24        29.1420   58.9840    0.7280 C.ar      1 JPC        -0.0541
     25 C25        28.7870   58.7370   -0.6440 C.ar      1 JPC        -0.0621
     26 C26        27.5160   59.1870   -1.1490 C.ar      1 JPC        -0.0626
     27 C27        26.6010   59.8820   -0.2840 C.ar      1 JPC        -0.0621
     28 C28        26.9510   60.1310    1.0840 C.ar      1 JPC        -0.0541
     29 H1         28.6378   63.7211    7.2618 H         1 JPC         0.0610
     30 H2         27.9907   65.4019    5.5255 H         1 JPC         0.0256
     31 H3         26.6157   64.3405    5.9827 H         1 JPC         0.0256
     32 H4         27.4857   64.0668    4.4352 H         1 JPC         0.0256
     33 H5         30.2603   64.6991    5.6071 H         1 JPC         0.0256
     34 H6         29.9779   63.3021    4.5138 H         1 JPC         0.0256
     35 H7         30.7449   63.0466    6.1179 H         1 JPC         0.0256
     36 H8         27.8277   59.8193    9.1330 H         1 JPC         0.0668
     37 H9         26.9581   57.4911    9.5025 H         1 JPC         0.0635
     38 H10        24.2651   57.9425    6.0884 H         1 JPC         0.0640
     39 H11        27.2957   61.5773    3.5373 H         1 JPC         0.0444
     40 H12        30.1010   58.6414    1.0996 H         1 JPC         0.0617
     41 H13        29.4755   58.2128   -1.2968 H         1 JPC         0.0615
     42 H14        27.2483   59.0017   -2.1829 H         1 JPC         0.0610
     43 H15        25.6444   60.2184   -0.6672 H         1 JPC         0.0615
     44 H16        26.2532   60.6567    1.7257 H         1 JPC         0.0617
@<TRIPOS>BOND
     1    1    2 1  
     2    1    5 am 
     3    1   15 1  
     4    2    3 1  
     5    2    4 1  
     6    5    6 2  
     7    5    7 1  
     8    7    8 ar 
     9    7   12 ar 
    10    8    9 ar 
    11    9   10 ar 
    12   10   11 ar 
    13   10   13 1  
    14   11   12 ar 
    15   12   14 1  
    16   15   16 2  
    17   15   19 1  
    18   16   17 1  
    19   16   20 1  
    20   17   18 1  
    21   18   19 2  
    22   18   23 1  
    23   20   21 ar 
    24   20   22 ar 
    25   23   24 ar 
    26   23   28 ar 
    27   24   25 ar 
    28   25   26 ar 
    29   26   27 ar 
    30   27   28 ar 
    31    2   29 1  
    32    3   30 1  
    33    3   31 1  
    34    3   32 1  
    35    4   33 1  
    36    4   34 1  
    37    4   35 1  
    38    8   36 1  
    39    9   37 1  
    40   11   38 1  
    41   19   39 1  
    42   24   40 1  
    43   25   41 1  
    44   26   42 1  
    45   27   43 1  
    46   28   44 1  
@<TRIPOS>SUBSTRUCTURE
     1 JPC         1

