### 
### Created by X-TOOL on Mon Sep 10 21:12:54 2018
### 

@<TRIPOS>MOLECULE
1yw7_ligand
   32    33     1     0     0
SMALL
GAST_HUCK


@<TRIPOS>ATOM
      1 C1         18.3980   27.9220   21.5180 C.ar      1 A41        -0.0616
      2 C2         17.9200   29.2550   21.4410 C.ar      1 A41        -0.0599
      3 C3         16.8110   29.5640   20.6140 C.ar      1 A41        -0.0346
      4 C4         16.1820   28.5390   19.8650 C.ar      1 A41         0.1140
      5 C5         16.6570   27.2050   19.9400 C.ar      1 A41        -0.0346
      6 C6         17.7640   26.8990   20.7670 C.ar      1 A41        -0.0599
      7 S7         14.7920   28.9280   18.8220 S.o2      1 A41         0.0892
      8 N8         15.4180   29.1300   17.3190 N.am      1 A41        -0.1875
      9 O9         14.2360   30.1930   19.2310 O.2       1 A41        -0.1446
     10 O10        13.9270   27.7770   18.7920 O.2       1 A41        -0.1446
     11 C11        16.1920   30.2060   16.9140 C.ar      1 A41         0.0712
     12 C12        15.5740   31.4630   16.6610 C.ar      1 A41        -0.0473
     13 C13        16.3350   32.5830   16.2500 C.ar      1 A41        -0.0729
     14 C14        17.7380   32.4800   16.0770 C.ar      1 A41        -0.0589
     15 C15        18.3660   31.2360   16.3230 C.ar      1 A41        -0.0616
     16 C16        17.6240   30.0910   16.7380 C.ar      1 A41         0.0201
     17 C17        18.3960   28.8410   16.9660 C.2       1 A41         0.0517
     18 O18        19.3470   28.8430   17.6950 O.co2     1 A41        -0.5663
     19 O19        17.8460   27.6820   16.5470 O.co2     1 A41        -0.5663
     20 C20        18.5480   33.6740   15.6400 C.3       1 A41        -0.0383
     21 H1         19.2465   27.6852   22.1497 H         1 A41         0.0618
     22 H2         18.4029   30.0378   22.0147 H         1 A41         0.0618
     23 H3         16.4449   30.5826   20.5548 H         1 A41         0.0637
     24 H4         16.1740   26.4225   19.3660 H         1 A41         0.0637
     25 H5         18.1285   25.8799   20.8267 H         1 A41         0.0618
     26 H6         15.2258   28.4203   16.6412 H         1 A41         0.2159
     27 H7         14.5019   31.5641   16.7853 H         1 A41         0.0476
     28 H8         15.8398   33.5295   16.0656 H         1 A41         0.0538
     29 H9         19.4388   31.1512   16.1926 H         1 A41         0.0546
     30 H10        17.8818   34.5383   15.5018 H         1 A41         0.0360
     31 H11        19.0544   33.4459   14.6905 H         1 A41         0.0360
     32 H12        19.2988   33.9091   16.4088 H         1 A41         0.0360
@<TRIPOS>BOND
     1    1    2 ar 
     2    1    6 ar 
     3    2    3 ar 
     4    3    4 ar 
     5    4    5 ar 
     6    4    7 1  
     7    5    6 ar 
     8    7    8 am 
     9    7    9 2  
    10    7   10 2  
    11    8   11 1  
    12   11   12 ar 
    13   11   16 ar 
    14   12   13 ar 
    15   13   14 ar 
    16   14   15 ar 
    17   14   20 1  
    18   15   16 ar 
    19   16   17 1  
    20   17   18 ar 
    21   17   19 ar 
    22    1   21 1  
    23    2   22 1  
    24    3   23 1  
    25    5   24 1  
    26    6   25 1  
    27    8   26 1  
    28   12   27 1  
    29   13   28 1  
    30   15   29 1  
    31   20   30 1  
    32   20   31 1  
    33   20   32 1  
@<TRIPOS>SUBSTRUCTURE
     1 A41         1

