### 
### Created by X-TOOL on Mon Sep 10 21:12:54 2018
### 

@<TRIPOS>MOLECULE
1yw8_ligand
   39    41     1     0     0
SMALL
GAST_HUCK


@<TRIPOS>ATOM
      1 C1         19.9950   33.6860   15.9840 C.3       1 A75        -0.0447
      2 C2         18.4750   33.8110   15.7830 C.3       1 A75        -0.0286
      3 C3         17.6970   32.5680   16.2150 C.ar      1 A75        -0.0536
      4 C4         18.3490   31.2780   16.3780 C.ar      1 A75        -0.0413
      5 C5         19.8570   31.1110   16.1190 C.3       1 A75        -0.0227
      6 C6         20.5540   32.3390   15.4920 C.3       1 A75        -0.0426
      7 C7         16.3040   32.6770   16.4650 C.ar      1 A75        -0.0790
      8 C8         15.5450   31.5600   16.8640 C.ar      1 A75        -0.0543
      9 C9         16.1640   30.3100   17.0250 C.ar      1 A75         0.0648
     10 C10        17.5520   30.1590   16.7870 C.ar      1 A75         0.0215
     11 C11        18.2050   28.7390   16.9860 C.2       1 A75         0.0473
     12 O12        17.8100   27.7650   16.1510 O.co2     1 A75        -0.5686
     13 O13        19.0090   28.5400   17.8610 O.co2     1 A75        -0.5686
     14 N14        15.3100   29.1880   17.4440 N.am      1 A75        -0.1891
     15 S15        14.6710   28.8650   18.9180 S.o2      1 A75         0.0891
     16 C16        16.0490   28.5550   20.0060 C.ar      1 A75         0.1140
     17 O17        13.9090   27.6410   18.7820 O.2       1 A75        -0.1446
     18 O18        13.9740   30.0600   19.3630 O.2       1 A75        -0.1446
     19 C19        16.6550   29.6490   20.7590 C.ar      1 A75        -0.0346
     20 C20        17.7760   29.3800   21.6450 C.ar      1 A75        -0.0599
     21 C21        18.2910   28.0260   21.7780 C.ar      1 A75        -0.0616
     22 C22        17.6830   26.9370   21.0250 C.ar      1 A75        -0.0599
     23 C23        16.5640   27.1980   20.1400 C.ar      1 A75        -0.0346
     24 H1         20.2170   33.7877   17.0565 H         1 A75         0.0284
     25 H2         20.4906   34.4958   15.4285 H         1 A75         0.0284
     26 H3         18.2788   33.9906   14.7157 H         1 A75         0.0381
     27 H4         18.1156   34.6682   16.3713 H         1 A75         0.0381
     28 H5         19.9935   30.2575   15.4387 H         1 A75         0.0417
     29 H6         20.3461   30.8955   17.0804 H         1 A75         0.0417
     30 H7         21.6245   32.2954   15.7412 H         1 A75         0.0288
     31 H8         20.4293   32.2892   14.4002 H         1 A75         0.0288
     32 H9         15.8156   33.6375   16.3466 H         1 A75         0.0519
     33 H10        14.4818   31.6653   17.0470 H         1 A75         0.0419
     34 H11        15.0875   28.5278   16.7266 H         1 A75         0.2158
     35 H12        16.2709   30.6576   20.6580 H         1 A75         0.0637
     36 H13        18.2284   30.1891   22.2069 H         1 A75         0.0618
     37 H14        19.1277   27.8272   22.4378 H         1 A75         0.0618
     38 H15        18.0681   25.9288   21.1265 H         1 A75         0.0618
     39 H16        16.1123   26.3869   19.5803 H         1 A75         0.0637
@<TRIPOS>BOND
     1    1    2 1  
     2    1    6 1  
     3    2    3 1  
     4    3    4 ar 
     5    3    7 ar 
     6    4    5 1  
     7    4   10 ar 
     8    5    6 1  
     9    7    8 ar 
    10    8    9 ar 
    11    9   10 ar 
    12    9   14 1  
    13   10   11 1  
    14   11   12 ar 
    15   11   13 ar 
    16   14   15 am 
    17   15   16 1  
    18   15   17 2  
    19   15   18 2  
    20   16   19 ar 
    21   16   23 ar 
    22   19   20 ar 
    23   20   21 ar 
    24   21   22 ar 
    25   22   23 ar 
    26    1   24 1  
    27    1   25 1  
    28    2   26 1  
    29    2   27 1  
    30    5   28 1  
    31    5   29 1  
    32    6   30 1  
    33    6   31 1  
    34    7   32 1  
    35    8   33 1  
    36   14   34 1  
    37   19   35 1  
    38   20   36 1  
    39   21   37 1  
    40   22   38 1  
    41   23   39 1  
@<TRIPOS>SUBSTRUCTURE
     1 A75         1

