### 
### Created by X-TOOL on Mon Sep 10 21:12:53 2018
### 

@<TRIPOS>MOLECULE
1ywi_ligand
   92    96     1     0     0
SMALL
GAST_HUCK


@<TRIPOS>ATOM
      1 N          -2.4660   10.0450   -7.5850 N.4       1 PRO         0.2461
      2 CA         -1.6270    9.0570   -6.9070 C.3       1 PRO         0.0671
      3 C          -1.9070    9.0060   -5.4060 C.2       1 PRO         0.2293
      4 O          -2.2610   10.0180   -4.8020 O.2       1 PRO        -0.3905
      5 CB         -0.1920    9.5490   -7.1610 C.3       1 PRO         0.0127
      6 CG         -0.3130   10.7200   -8.0880 C.3       1 PRO        -0.0053
      7 CD         -1.7050   11.2540   -7.9150 C.3       1 PRO        -0.0313
      8 N          -1.7470    7.8220   -4.7800 N.am      1 PRO        -0.2471
      9 CA         -1.9950    7.6490   -3.3460 C.3       1 PRO         0.1341
     10 C          -0.8520    8.1750   -2.4800 C.2       1 PRO         0.2066
     11 O           0.3110    8.1340   -2.8870 O.2       1 PRO        -0.3942
     12 CB         -2.1140    6.1370   -3.2030 C.3       1 PRO        -0.0104
     13 CG         -1.2280    5.5920   -4.2670 C.3       1 PRO        -0.0281
     14 CD         -1.3160    6.5600   -5.4170 C.3       1 PRO         0.0371
     15 N          -1.1640    8.6660   -1.2630 N.am      1 PRO        -0.2498
     16 CA         -0.1630    9.2000   -0.3440 C.3       1 PRO         0.1338
     17 C           0.6040    8.0930    0.3660 C.2       1 PRO         0.2041
     18 O           0.0640    7.0160    0.6190 O.2       1 PRO        -0.3944
     19 CB         -0.9820   10.0130    0.6730 C.3       1 PRO        -0.0104
     20 CG         -2.4100    9.9240    0.2270 C.3       1 PRO        -0.0281
     21 CD         -2.5070    8.7290   -0.6760 C.3       1 PRO         0.0369
     22 N           1.8650    8.3610    0.6810 N.am      1 LEU        -0.2637
     23 CA          2.7000    7.3810    1.3620 C.3       1 LEU         0.1314
     24 C           2.3760    7.3390    2.8600 C.2       1 LEU         0.2064
     25 O           2.0410    8.3650    3.4540 O.2       1 LEU        -0.3942
     26 CB          4.1710    7.7550    1.1450 C.3       1 LEU        -0.0101
     27 CG          5.1960    6.9520    1.9400 C.3       1 LEU        -0.0425
     28 CD1         5.5460    5.6810    1.1980 C.3       1 LEU        -0.0625
     29 CD2         6.4420    7.7870    2.1930 C.3       1 LEU        -0.0625
     30 N           2.4720    6.1510    3.4940 N.am      1 PRO        -0.2498
     31 CA          2.2180    5.9870    4.9230 C.3       1 PRO         0.1339
     32 C           3.4150    6.4270    5.7630 C.2       1 PRO         0.2060
     33 O           4.5560    6.3260    5.3150 O.2       1 PRO        -0.3942
     34 CB          1.9640    4.4820    5.0950 C.3       1 PRO        -0.0104
     35 CG          2.0660    3.8800    3.7270 C.3       1 PRO        -0.0281
     36 CD          2.8100    4.8660    2.8760 C.3       1 PRO         0.0369
     37 N           3.1790    6.9280    6.9880 N.am      1 PRO        -0.2556
     38 CA          4.2610    7.3640    7.8740 C.3       1 PRO         0.0972
     39 C           5.1050    6.1910    8.3670 C.2       1 PRO         0.0603
     40 O           6.0880    5.8440    7.6780 O.co2     1 PRO        -0.5666
     41 CB          3.5340    8.0350    9.0520 C.3       1 PRO        -0.0159
     42 CG          2.1230    8.2170    8.5990 C.3       1 PRO        -0.0288
     43 CD          1.8610    7.1240    7.6070 C.3       1 PRO         0.0362
     44 OXT         4.7760    5.6290    9.4320 O.co2     1 PRO        -0.5666
     45 H1         -3.2329   10.2947   -6.9804 H         1 PRO         0.2035
     46 H2         -2.8262    9.6415   -8.4356 H         1 PRO         0.2035
     47 H3         -1.7814    8.0578   -7.3402 H         1 PRO         0.1099
     48 H4          0.4077    8.7533   -7.6272 H         1 PRO         0.0347
     49 H5          0.2790    9.8572   -6.2159 H         1 PRO         0.0347
     50 H6         -0.1548   10.3998   -9.1284 H         1 PRO         0.0320
     51 H7          0.4259   11.4914   -7.8253 H         1 PRO         0.0320
     52 H8         -1.7508   11.9888   -7.0977 H         1 PRO         0.0814
     53 H9         -2.0728   11.7149   -8.8436 H         1 PRO         0.0814
     54 H10        -2.9295    8.1493   -3.0521 H         1 PRO         0.0802
     55 H11        -3.1534    5.8122   -3.3583 H         1 PRO         0.0313
     56 H12        -1.7730    5.8123   -2.2089 H         1 PRO         0.0313
     57 H13        -1.5739    4.5955   -4.5790 H         1 PRO         0.0287
     58 H14        -0.1920    5.5235   -3.9037 H         1 PRO         0.0287
     59 H15        -0.3371    6.6807   -5.9039 H         1 PRO         0.0524
     60 H16        -2.0552    6.2223   -6.1583 H         1 PRO         0.0524
     61 H17         0.5463    9.8466   -0.8813 H         1 PRO         0.0802
     62 H18        -0.6493   11.0614    0.6795 H         1 PRO         0.0313
     63 H19        -0.8701    9.5865    1.6808 H         1 PRO         0.0313
     64 H20        -2.6940   10.8356   -0.3191 H         1 PRO         0.0287
     65 H21        -3.0714    9.7965    1.0966 H         1 PRO         0.0287
     66 H22        -2.7347    7.8167   -0.1052 H         1 PRO         0.0524
     67 H23        -3.2733    8.8775   -1.4511 H         1 PRO         0.0524
     68 H24         2.2496    9.2537    0.4461 H         1 LEU         0.1883
     69 H25         2.5125    6.3864    0.9311 H         1 LEU         0.0800
     70 H26         4.2913    8.8142    1.4164 H         1 LEU         0.0315
     71 H27         4.3967    7.6223    0.0766 H         1 LEU         0.0315
     72 H28         4.7544    6.6810    2.9104 H         1 LEU         0.0298
     73 H29         6.2850    5.1092    1.7785 H         1 LEU         0.0232
     74 H30         5.9690    5.9350    0.2149 H         1 LEU         0.0232
     75 H31         4.6386    5.0745    1.0612 H         1 LEU         0.0232
     76 H32         6.1650    8.7047    2.7326 H         1 LEU         0.0232
     77 H33         6.9067    8.0528    1.2321 H         1 LEU         0.0232
     78 H34         7.1553    7.2075    2.7974 H         1 LEU         0.0232
     79 H35         1.3327    6.5664    5.2239 H         1 PRO         0.0802
     80 H36         0.9611    4.3102    5.5130 H         1 PRO         0.0313
     81 H37         2.7197    4.0419    5.7622 H         1 PRO         0.0313
     82 H38         1.0616    3.7050    3.3141 H         1 PRO         0.0287
     83 H39         2.6151    2.9279    3.7718 H         1 PRO         0.0287
     84 H40         3.8939    4.6820    2.9126 H         1 PRO         0.0524
     85 H41         2.4664    4.8263    1.8318 H         1 PRO         0.0524
     86 H42         4.9120    8.0847    7.3575 H         1 PRO         0.0728
     87 H43         3.9922    9.0081    9.2824 H         1 PRO         0.0306
     88 H44         3.5715    7.3917    9.9435 H         1 PRO         0.0306
     89 H45         1.9983    9.2014    8.1242 H         1 PRO         0.0286
     90 H46         1.4340    8.1314    9.4522 H         1 PRO         0.0286
     91 H47         1.5178    6.2071    8.1084 H         1 PRO         0.0524
     92 H48         1.1148    7.4355    6.8613 H         1 PRO         0.0524
@<TRIPOS>BOND
     1    1    2 1  
     2    1    7 1  
     3    2    3 1  
     4    2    5 1  
     5    3    4 2  
     6    3    8 am 
     7    5    6 1  
     8    6    7 1  
     9    8    9 1  
    10    8   14 1  
    11    9   10 1  
    12    9   12 1  
    13   10   11 2  
    14   10   15 am 
    15   12   13 1  
    16   13   14 1  
    17   15   16 1  
    18   15   21 1  
    19   16   17 1  
    20   16   19 1  
    21   17   18 2  
    22   17   22 am 
    23   19   20 1  
    24   20   21 1  
    25   22   23 1  
    26   23   24 1  
    27   23   26 1  
    28   24   25 2  
    29   24   30 am 
    30   26   27 1  
    31   27   28 1  
    32   27   29 1  
    33   30   31 1  
    34   30   36 1  
    35   31   32 1  
    36   31   34 1  
    37   32   33 2  
    38   32   37 am 
    39   34   35 1  
    40   35   36 1  
    41   37   38 1  
    42   37   43 1  
    43   38   39 1  
    44   38   41 1  
    45   39   40 ar 
    46   39   44 ar 
    47   41   42 1  
    48   42   43 1  
    49    1   45 1  
    50    1   46 1  
    51    2   47 1  
    52    5   48 1  
    53    5   49 1  
    54    6   50 1  
    55    6   51 1  
    56    7   52 1  
    57    7   53 1  
    58    9   54 1  
    59   12   55 1  
    60   12   56 1  
    61   13   57 1  
    62   13   58 1  
    63   14   59 1  
    64   14   60 1  
    65   16   61 1  
    66   19   62 1  
    67   19   63 1  
    68   20   64 1  
    69   20   65 1  
    70   21   66 1  
    71   21   67 1  
    72   22   68 1  
    73   23   69 1  
    74   26   70 1  
    75   26   71 1  
    76   27   72 1  
    77   28   73 1  
    78   28   74 1  
    79   28   75 1  
    80   29   76 1  
    81   29   77 1  
    82   29   78 1  
    83   31   79 1  
    84   34   80 1  
    85   34   81 1  
    86   35   82 1  
    87   35   83 1  
    88   36   84 1  
    89   36   85 1  
    90   38   86 1  
    91   41   87 1  
    92   41   88 1  
    93   42   89 1  
    94   42   90 1  
    95   43   91 1  
    96   43   92 1  
@<TRIPOS>SUBSTRUCTURE
     1 PRO         1

