### 
### Created by X-TOOL on Mon Sep 10 21:12:53 2018
### 

@<TRIPOS>MOLECULE
1ywr_ligand
   65    69     1     0     0
SMALL
GAST_HUCK


@<TRIPOS>ATOM
      1 C1          5.4490   -0.5080   18.6240 C.ar      1 LI9        -0.0627
      2 C2          4.5650   -0.8100   16.0060 C.ar      1 LI9        -0.0327
      3 C3          4.1820   -1.0730   18.3820 C.ar      1 LI9        -0.0272
      4 C4          6.2850   -0.0910   17.5860 C.ar      1 LI9        -0.0327
      5 C5          5.8100   -0.2570   16.2890 C.ar      1 LI9         0.1279
      6 C6          3.7370   -1.2240   17.0600 C.ar      1 LI9        -0.0627
      7 C7          3.3810   -1.4790   19.5430 C.2       1 LI9         0.0749
      8 F9          6.5990    0.1370   15.2950 F         1 LI9        -0.1867
      9 N10         2.1750   -2.9890   20.8490 N.am      1 LI9        -0.1678
     10 C11         1.4800   -4.1590   21.3750 C.3       1 LI9         0.0789
     11 C12         1.5760   -1.6340   22.7780 C.3       1 LI9         0.0465
     12 C13         2.9080   -0.8680   20.6510 C.2       1 LI9         0.1226
     13 C14         3.0750    0.5310   21.0580 C.ar      1 LI9         0.0882
     14 O15         3.0970   -3.8030   18.8770 O.2       1 LI9        -0.3975
     15 C16         2.8950   -2.9020   19.6670 C.2       1 LI9         0.2118
     16 N17         2.1780   -1.7310   21.4660 N.pl3     1 LI9        -0.1925
     17 C18        -0.5900   -5.5720   21.2130 C.3       1 LI9        -0.0315
     18 C19         1.5360   -6.6780   21.4960 C.3       1 LI9        -0.0315
     19 C20         2.3150   -5.4200   21.1320 C.3       1 LI9         0.0130
     20 C21         0.0810   -4.2770   20.7600 C.3       1 LI9         0.0130
     21 N22         0.2420   -6.7070   20.8160 N.4       1 LI9         0.2271
     22 N23         3.2280    0.8200   22.3590 N.ar      1 LI9        -0.2464
     23 C24         3.2290    2.8090   20.5140 C.ar      1 LI9         0.0153
     24 N25         3.5370    2.4650   23.9890 N.pl3     1 LI9        -0.2753
     25 C26         3.0690    1.5140   20.0850 C.ar      1 LI9        -0.0115
     26 C27         3.3780    2.1050   22.6890 C.ar      1 LI9         0.1927
     27 N28         3.3840    3.1140   21.8130 N.ar      1 LI9        -0.2540
     28 C29         3.4450    1.5650   25.0990 C.3       1 LI9         0.0727
     29 C30         2.1050    0.8860   25.2920 C.ar      1 LI9        -0.0179
     30 C31         3.7960    2.3060   26.4050 C.3       1 LI9        -0.0316
     31 C32        -0.3270   -0.4290   25.6950 C.ar      1 LI9        -0.0687
     32 C33         2.0630   -0.3090   26.0290 C.ar      1 LI9        -0.0581
     33 C34         0.9180    1.4030   24.7670 C.ar      1 LI9        -0.0581
     34 C35        -0.2990    0.7500   24.9650 C.ar      1 LI9        -0.0685
     35 C36         0.8460   -0.9520   26.2220 C.ar      1 LI9        -0.0685
     36 H1          5.7859   -0.3932   19.6479 H         1 LI9         0.0566
     37 H2          4.2373   -0.9201   14.9786 H         1 LI9         0.0594
     38 H3          7.2592    0.3421   17.7819 H         1 LI9         0.0594
     39 H4          2.7640   -1.6558   16.8553 H         1 LI9         0.0566
     40 H5          1.3631   -4.0316   22.4613 H         1 LI9         0.0584
     41 H6          1.6487   -0.5975   23.1390 H         1 LI9         0.0517
     42 H7          2.1039   -2.3025   23.4740 H         1 LI9         0.0517
     43 H8          0.5177   -1.9282   22.7185 H         1 LI9         0.0517
     44 H9         -1.5799   -5.6584   20.7413 H         1 LI9         0.0814
     45 H10        -0.7045   -5.5643   22.3070 H         1 LI9         0.0814
     46 H11         1.3716   -6.6975   22.5835 H         1 LI9         0.0814
     47 H12         2.1193   -7.5615   21.1974 H         1 LI9         0.0814
     48 H13         3.2252   -5.3714   21.7478 H         1 LI9         0.0340
     49 H14         2.5936   -5.4661   20.0689 H         1 LI9         0.0340
     50 H15         0.1656   -4.2766   19.6633 H         1 LI9         0.0340
     51 H16        -0.5299   -3.4204   21.0810 H         1 LI9         0.0340
     52 H17         0.3932   -6.6713   19.8201 H         1 LI9         0.2013
     53 H18        -0.2347   -7.5629   21.0530 H         1 LI9         0.2013
     54 H19         3.2302    3.6089   19.7824 H         1 LI9         0.0891
     55 H20         3.7379    3.4549   24.1906 H         1 LI9         0.1890
     56 H21         2.9441    1.2741   19.0353 H         1 LI9         0.0697
     57 H22         4.1918    0.7745   24.9339 H         1 LI9         0.0721
     58 H23         3.7233    1.6090   27.2529 H         1 LI9         0.0274
     59 H24         3.0935    3.1392   26.5540 H         1 LI9         0.0274
     60 H25         4.8216    2.6983   26.3398 H         1 LI9         0.0274
     61 H26        -1.2676   -0.9436   25.8545 H         1 LI9         0.0559
     62 H27         2.9731   -0.7267   26.4442 H         1 LI9         0.0557
     63 H28         0.9429    2.3250   24.1975 H         1 LI9         0.0557
     64 H29        -1.2137    1.1601   24.5523 H         1 LI9         0.0599
     65 H30         0.8123   -1.8738   26.7914 H         1 LI9         0.0599
@<TRIPOS>BOND
     1    3    1 ar 
     2    1    4 ar 
     3    2    5 ar 
     4    6    2 ar 
     5    3    6 ar 
     6    7    3 1  
     7    4    5 ar 
     8    5    8 1  
     9   12    7 2  
    10    7   15 1  
    11    9   10 1  
    12    9   15 am 
    13   16    9 1  
    14   10   19 1  
    15   10   20 1  
    16   16   11 1  
    17   13   12 1  
    18   12   16 1  
    19   22   13 ar 
    20   13   25 ar 
    21   15   14 2  
    22   20   17 1  
    23   17   21 1  
    24   19   18 1  
    25   18   21 1  
    26   26   22 ar 
    27   23   25 ar 
    28   27   23 ar 
    29   24   26 1  
    30   28   24 1  
    31   26   27 ar 
    32   29   28 1  
    33   28   30 1  
    34   32   29 ar 
    35   29   33 ar 
    36   31   34 ar 
    37   35   31 ar 
    38   32   35 ar 
    39   33   34 ar 
    40    1   36 1  
    41    2   37 1  
    42    4   38 1  
    43    6   39 1  
    44   10   40 1  
    45   11   41 1  
    46   11   42 1  
    47   11   43 1  
    48   17   44 1  
    49   17   45 1  
    50   18   46 1  
    51   18   47 1  
    52   19   48 1  
    53   19   49 1  
    54   20   50 1  
    55   20   51 1  
    56   21   52 1  
    57   21   53 1  
    58   23   54 1  
    59   24   55 1  
    60   25   56 1  
    61   28   57 1  
    62   30   58 1  
    63   30   59 1  
    64   30   60 1  
    65   31   61 1  
    66   32   62 1  
    67   33   63 1  
    68   34   64 1  
    69   35   65 1  
@<TRIPOS>SUBSTRUCTURE
     1 LI9         1

