### 
### Created by X-TOOL on Mon Sep 10 21:12:52 2018
### 

@<TRIPOS>MOLECULE
1yxd_ligand
   25    24     1     0     0
SMALL
GAST_HUCK


@<TRIPOS>ATOM
      1 N         -42.7470   25.1820    5.3700 N.4       1 LYS         0.2327
      2 CA        -43.1380   24.5490    6.6710 C.3       1 LYS         0.0283
      3 C         -41.9400   24.3840    7.5560 C.2       1 LYS         0.0844
      4 O         -40.7960   24.5660    7.1240 O.co2     1 LYS        -0.5643
      5 CB        -43.8030   23.1790    6.4790 C.3       1 LYS         0.0026
      6 CG        -42.8940   22.0770    5.9150 C.3       1 LYS        -0.0416
      7 CD        -43.7420   20.8480    5.5670 C.3       1 LYS        -0.0123
      8 CE        -43.0160   19.5230    5.5360 C.3       1 LYS        -0.0354
      9 NZ        -41.8270   19.5670    4.7040 N.4       1 LYS         0.2185
     10 OXT       -42.0740   24.0590    8.7390 O.co2     1 LYS        -0.5643
     11 H1        -43.5634   25.2854    4.7879 H         1 LYS         0.2010
     12 H2        -42.0721   24.5979    4.9015 H         1 LYS         0.2010
     13 H3        -42.3426   26.0885    5.5455 H         1 LYS         0.2010
     14 H4        -43.8567   25.2153    7.1706 H         1 LYS         0.1024
     15 H5        -44.6495   23.3068    5.7882 H         1 LYS         0.0339
     16 H6        -44.1759   22.8429    7.4578 H         1 LYS         0.0339
     17 H7        -42.1401   21.8019    6.6673 H         1 LYS         0.0270
     18 H8        -42.3905   22.4443    5.0086 H         1 LYS         0.0270
     19 H9        -44.1804   21.0137    4.5718 H         1 LYS         0.0317
     20 H10       -44.5460   20.7726    6.3140 H         1 LYS         0.0317
     21 H11       -43.6970   18.7554    5.1398 H         1 LYS         0.0813
     22 H12       -42.7206   19.2571    6.5617 H         1 LYS         0.0813
     23 H13       -41.3769   18.6651    4.7132 H         1 LYS         0.1994
     24 H14       -41.1919   20.2631    5.0621 H         1 LYS         0.1994
     25 H15       -42.0866   19.8033    3.7591 H         1 LYS         0.1994
@<TRIPOS>BOND
     1    1    2 1  
     2    2    3 1  
     3    2    5 1  
     4    3    4 ar 
     5    3   10 ar 
     6    5    6 1  
     7    6    7 1  
     8    7    8 1  
     9    8    9 1  
    10    1   11 1  
    11    1   12 1  
    12    1   13 1  
    13    2   14 1  
    14    5   15 1  
    15    5   16 1  
    16    6   17 1  
    17    6   18 1  
    18    7   19 1  
    19    7   20 1  
    20    8   21 1  
    21    8   22 1  
    22    9   23 1  
    23    9   24 1  
    24    9   25 1  
@<TRIPOS>SUBSTRUCTURE
     1 LYS         1

