### 
### Created by X-TOOL on Mon Sep 10 21:12:54 2018
### 

@<TRIPOS>MOLECULE
1yy4_ligand
   30    32     1     0     0
SMALL
GAST_HUCK


@<TRIPOS>ATOM
      1 C1         33.4230   36.2570   36.5760 C.ar      1 4NA         0.1030
      2 C2         32.1680   36.8970   36.2850 C.ar      1 4NA         0.0711
      3 C3         31.0180   36.6980   37.1690 C.ar      1 4NA        -0.0154
      4 C4         31.1960   35.8510   38.3850 C.ar      1 4NA        -0.0253
      5 C5         32.4550   35.2390   38.6280 C.ar      1 4NA        -0.0567
      6 C6         33.5550   35.4460   37.7440 C.ar      1 4NA        -0.0273
      7 C9         29.7320   37.3100   36.9460 C.ar      1 4NA        -0.0597
      8 C10        28.6550   37.0780   37.8610 C.ar      1 4NA        -0.0593
      9 C11        28.8040   36.2480   39.0450 C.ar      1 4NA        -0.0274
     10 C12        30.0970   35.6320   39.2830 C.ar      1 4NA        -0.0534
     11 C16        27.6250   36.0470   39.9980 C.ar      1 4NA        -0.0301
     12 C17        26.2660   36.1390   39.5170 C.ar      1 4NA        -0.0625
     13 C18        25.1600   35.9670   40.4020 C.ar      1 4NA        -0.0320
     14 C19        25.3940   35.7010   41.7850 C.ar      1 4NA         0.0889
     15 C20        26.7260   35.6040   42.2980 C.ar      1 4NA        -0.0320
     16 C21        27.8340   35.7770   41.4080 C.ar      1 4NA        -0.0625
     17 O26        24.3080   35.5370   42.6310 O.3       1 4NA        -0.3322
     18 CL27       32.1100   37.8660   34.8330 Cl        1 4NA        -0.0825
     19 O28        34.5470   36.4020   35.7720 O.3       1 4NA        -0.3316
     20 H1         32.5814   34.6052   39.4983 H         1 4NA         0.0617
     21 H2         34.5086   34.9792   37.9627 H         1 4NA         0.0588
     22 H3         29.5797   37.9479   36.0829 H         1 4NA         0.0590
     23 H4         27.6936   37.5381   37.6634 H         1 4NA         0.0606
     24 H5         30.2348   34.9976   40.1511 H         1 4NA         0.0603
     25 H6         26.0837   36.3418   38.4679 H         1 4NA         0.0596
     26 H7         24.1459   36.0380   40.0256 H         1 4NA         0.0547
     27 H8         26.8945   35.4016   43.3495 H         1 4NA         0.0547
     28 H9         28.8446   35.7051   41.7936 H         1 4NA         0.0596
     29 H10        24.3402   34.6717   43.0218 H         1 4NA         0.2488
     30 H11        34.3359   36.9591   35.0321 H         1 4NA         0.2492
@<TRIPOS>BOND
     1    1    2 ar 
     2    1    6 ar 
     3    1   19 1  
     4    2    3 ar 
     5    2   18 1  
     6    3    4 ar 
     7    3    7 ar 
     8    4    5 ar 
     9    4   10 ar 
    10    5    6 ar 
    11    7    8 ar 
    12    8    9 ar 
    13    9   10 ar 
    14    9   11 1  
    15   11   12 ar 
    16   11   16 ar 
    17   12   13 ar 
    18   13   14 ar 
    19   14   15 ar 
    20   14   17 1  
    21   15   16 ar 
    22    5   20 1  
    23    6   21 1  
    24    7   22 1  
    25    8   23 1  
    26   10   24 1  
    27   12   25 1  
    28   13   26 1  
    29   15   27 1  
    30   16   28 1  
    31   17   29 1  
    32   19   30 1  
@<TRIPOS>SUBSTRUCTURE
     1 4NA         1

