### 
### Created by X-TOOL on Mon Sep 10 21:12:54 2018
### 

@<TRIPOS>MOLECULE
1yye_ligand
   31    33     1     0     0
SMALL
GAST_HUCK


@<TRIPOS>ATOM
      1 C1         26.2360   36.2130   41.8980 C.ar      1 196         0.1224
      2 C2         26.1850   36.5960   40.5190 C.ar      1 196         0.1605
      3 C3         27.3570   36.6940   39.7290 C.ar      1 196        -0.0288
      4 C4         28.6380   36.4010   40.3130 C.ar      1 196        -0.0292
      5 C5         28.6880   36.0150   41.7110 C.ar      1 196        -0.0663
      6 C6         27.5000   35.9160   42.5040 C.ar      1 196        -0.0334
      7 O10        25.0840   36.1150   42.6680 O.3       1 196        -0.3320
      8 F11        24.9920   36.8690   39.9840 F         1 196        -0.1898
      9 C12        29.9010   36.5060   39.4650 C.ar      1 196        -0.0135
     10 C13        31.1260   35.8350   39.8240 C.ar      1 196        -0.0423
     11 C14        32.3060   35.9350   39.0280 C.ar      1 196        -0.0147
     12 C15        32.2740   36.7940   37.8050 C.ar      1 196         0.0014
     13 C16        31.0360   37.4590   37.4330 C.ar      1 196         0.0936
     14 C17        29.8930   37.3150   38.2720 C.ar      1 196        -0.0226
     15 C20        33.5020   35.2620   39.4230 C.ar      1 196        -0.0530
     16 C21        34.6740   35.3910   38.6130 C.ar      1 196        -0.0254
     17 C22        34.6630   36.1980   37.4270 C.ar      1 196         0.0914
     18 C23        33.4820   36.8830   37.0130 C.ar      1 196        -0.0247
     19 C27        30.8940   38.2980   36.2690 C.1       1 196         0.0911
     20 N28        30.7900   38.9480   35.3170 N.1       1 196        -0.3367
     21 O29        35.8180   36.3020   36.6720 O.3       1 196        -0.3304
     22 H1         27.2883   36.9888   38.6881 H         1 196         0.0578
     23 H2         29.6475   35.7964   42.1657 H         1 196         0.0562
     24 H3         27.5559   35.6212   43.5457 H         1 196         0.0535
     25 H4         24.9935   35.2253   42.9886 H         1 196         0.2476
     26 H5         31.1511   35.2358   40.7270 H         1 196         0.0702
     27 H6         28.9808   37.8348   38.0021 H         1 196         0.0745
     28 H7         33.5215   34.6611   40.3250 H         1 196         0.0635
     29 H8         35.5819   34.8724   38.8990 H         1 196         0.0592
     30 H9         33.4895   37.4717   36.1028 H         1 196         0.0501
     31 H10        36.0827   37.2131   36.6241 H         1 196         0.2500
@<TRIPOS>BOND
     1    1    2 ar 
     2    1    6 ar 
     3    1    7 1  
     4    2    3 ar 
     5    2    8 1  
     6    3    4 ar 
     7    4    5 ar 
     8    4    9 1  
     9    5    6 ar 
    10    9   10 ar 
    11    9   14 ar 
    12   10   11 ar 
    13   11   12 ar 
    14   11   15 ar 
    15   12   13 ar 
    16   12   18 ar 
    17   13   14 ar 
    18   13   19 1  
    19   15   16 ar 
    20   16   17 ar 
    21   17   18 ar 
    22   17   21 1  
    23   19   20 3  
    24    3   22 1  
    25    5   23 1  
    26    6   24 1  
    27    7   25 1  
    28   10   26 1  
    29   14   27 1  
    30   15   28 1  
    31   16   29 1  
    32   18   30 1  
    33   21   31 1  
@<TRIPOS>SUBSTRUCTURE
     1 196         1

