### 
### Created by X-TOOL on Mon Sep 10 21:12:53 2018
### 

@<TRIPOS>MOLECULE
1yyr_ligand
   41    41     1     0     0
SMALL
GAST_HUCK


@<TRIPOS>ATOM
      1 C01       -21.6460  109.0500   16.6960 C.3       1 SAZ        -0.0163
      2 C02       -20.3520  109.9060   17.0620 C.3       1 SAZ        -0.0001
      3 C03       -22.6440  109.1430   17.9180 C.3       1 SAZ        -0.0035
      4 C05       -20.7080  111.4200   17.2640 C.3       1 SAZ        -0.0234
      5 C07       -22.9680  110.6290   18.1750 C.2       1 SAZ        -0.1037
      6 N08       -21.3530  107.5870   16.3380 N.4       1 SAZ         0.2371
      7 C09       -18.7430  108.5760   13.7180 C.2       1 SAZ        -0.1043
      8 C10       -20.1210  108.2270   14.1960 C.3       1 SAZ        -0.0065
      9 C11       -20.1520  107.4010   15.5080 C.3       1 SAZ        -0.0288
     10 C14       -18.1500  109.7730   13.6090 C.2       1 SAZ        -0.0869
     11 C17       -18.7460  111.1240   13.9610 C.3       1 SAZ        -0.0406
     12 C18       -16.7430  109.8420   13.0760 C.3       1 SAZ        -0.0406
     13 C19       -21.1840  106.6820   17.4740 C.3       1 SAZ        -0.0426
     14 C31       -22.1110  111.6630   17.8700 C.2       1 SAZ        -0.0837
     15 C32       -22.4870  113.0900   18.1010 C.3       1 SAZ        -0.0404
     16 H1        -22.1213  109.5127   15.8185 H         1 SAZ         0.0868
     17 H2        -19.6202  109.8160   16.2457 H         1 SAZ         0.0342
     18 H3        -19.9143  109.5138   17.9918 H         1 SAZ         0.0342
     19 H4        -22.1768  108.7053   18.8125 H         1 SAZ         0.0394
     20 H5        -23.5696  108.5969   17.6833 H         1 SAZ         0.0394
     21 H6        -20.6634  111.9191   16.2848 H         1 SAZ         0.0412
     22 H7        -19.9595  111.8643   17.9365 H         1 SAZ         0.0412
     23 H8        -23.9296  110.8746   18.6233 H         1 SAZ         0.0244
     24 H9        -22.1486  107.2666   15.8085 H         1 SAZ         0.2036
     25 H10       -18.1314  107.7281   13.4132 H         1 SAZ         0.0244
     26 H11       -20.6207  107.6426   13.4094 H         1 SAZ         0.0391
     27 H12       -20.6741  109.1627   14.3651 H         1 SAZ         0.0391
     28 H13       -20.0845  106.3360   15.2411 H         1 SAZ         0.0830
     29 H14       -19.2756  107.6846   16.1093 H         1 SAZ         0.0830
     30 H15       -18.0079  111.9142   13.7589 H         1 SAZ         0.0375
     31 H16       -19.0165  111.1389   15.0271 H         1 SAZ         0.0375
     32 H17       -19.6454  111.2979   13.3520 H         1 SAZ         0.0375
     33 H18       -16.3875  108.8265   12.8469 H         1 SAZ         0.0375
     34 H19       -16.0866  110.2984   13.8315 H         1 SAZ         0.0375
     35 H20       -16.7272  110.4513   12.1603 H         1 SAZ         0.0375
     36 H21       -22.0525  106.7679   18.1435 H         1 SAZ         0.0778
     37 H22       -20.2696  106.9500   18.0235 H         1 SAZ         0.0778
     38 H23       -21.1029  105.6473   17.1096 H         1 SAZ         0.0778
     39 H24       -23.4982  113.1377   18.5313 H         1 SAZ         0.0375
     40 H25       -22.4696  113.6332   17.1447 H         1 SAZ         0.0375
     41 H26       -21.7702  113.5500   18.7971 H         1 SAZ         0.0375
@<TRIPOS>BOND
     1    1    2 1  
     2    1    3 1  
     3    6    1 1  
     4    2    4 1  
     5    3    5 1  
     6    4   14 1  
     7    5   14 2  
     8    9    6 1  
     9    6   13 1  
    10    8    7 1  
    11    7   10 2  
    12    8    9 1  
    13   10   11 1  
    14   10   12 1  
    15   14   15 1  
    16    1   16 1  
    17    2   17 1  
    18    2   18 1  
    19    3   19 1  
    20    3   20 1  
    21    4   21 1  
    22    4   22 1  
    23    5   23 1  
    24    6   24 1  
    25    7   25 1  
    26    8   26 1  
    27    8   27 1  
    28    9   28 1  
    29    9   29 1  
    30   11   30 1  
    31   11   31 1  
    32   11   32 1  
    33   12   33 1  
    34   12   34 1  
    35   12   35 1  
    36   13   36 1  
    37   13   37 1  
    38   13   38 1  
    39   15   39 1  
    40   15   40 1  
    41   15   41 1  
@<TRIPOS>SUBSTRUCTURE
     1 SAZ         1

