### 
### Created by X-TOOL on Mon Sep 10 21:12:53 2018
### 

@<TRIPOS>MOLECULE
1yys_ligand
   41    41     1     0     0
SMALL
GAST_HUCK


@<TRIPOS>ATOM
      1 C01        51.8580   13.2410   63.5180 C.3       1 SAZ        -0.0163
      2 C02        52.3200   11.7900   63.1370 C.3       1 SAZ        -0.0001
      3 C03        53.1240   14.0850   63.9750 C.3       1 SAZ        -0.0035
      4 C05        53.5110   11.7130   62.1440 C.3       1 SAZ        -0.0234
      5 C07        54.4710   13.7030   63.3540 C.2       1 SAZ        -0.1037
      6 C08        52.7490   15.4700   60.5080 C.2       1 SAZ        -0.1043
      7 C09        51.4550   15.9920   61.0730 C.3       1 SAZ        -0.0065
      8 C10        50.9810   15.2650   62.3420 C.3       1 SAZ        -0.0288
      9 C13        52.9920   14.9620   59.2880 C.2       1 SAZ        -0.0869
     10 C16        51.9800   14.7950   58.1710 C.3       1 SAZ        -0.0406
     11 C17        54.3790   14.5010   58.9300 C.3       1 SAZ        -0.0406
     12 C25        54.6580   12.6380   62.5290 C.2       1 SAZ        -0.0837
     13 C26        56.0030   12.2960   61.9430 C.3       1 SAZ        -0.0404
     14 N35        51.1250   13.8130   62.4020 N.4       1 SAZ         0.2371
     15 C36        49.7750   13.2690   62.1450 C.3       1 SAZ        -0.0426
     16 H1         51.1699   13.1803   64.3740 H         1 SAZ         0.0868
     17 H2         51.4644   11.2691   62.6826 H         1 SAZ         0.0342
     18 H3         52.6148   11.2731   64.0621 H         1 SAZ         0.0342
     19 H4         53.2186   13.9785   65.0657 H         1 SAZ         0.0394
     20 H5         52.9294   15.1384   63.7249 H         1 SAZ         0.0394
     21 H6         53.1531   11.9943   61.1426 H         1 SAZ         0.0412
     22 H7         53.8850   10.6788   62.1226 H         1 SAZ         0.0412
     23 H8         55.3344   14.3240   63.5881 H         1 SAZ         0.0244
     24 H9         53.6052   15.5095   61.1798 H         1 SAZ         0.0244
     25 H10        50.6756   15.8865   60.3039 H         1 SAZ         0.0391
     26 H11        51.5893   17.0565   61.3155 H         1 SAZ         0.0391
     27 H12        49.9120   15.4918   62.4673 H         1 SAZ         0.0830
     28 H13        51.5463   15.6836   63.1877 H         1 SAZ         0.0830
     29 H14        52.4729   14.3525   57.2928 H         1 SAZ         0.0375
     30 H15        51.5650   15.7776   57.9022 H         1 SAZ         0.0375
     31 H16        51.1680   14.1337   58.5077 H         1 SAZ         0.0375
     32 H17        55.0495   14.6549   59.7884 H         1 SAZ         0.0375
     33 H18        54.7468   15.0789   58.0693 H         1 SAZ         0.0375
     34 H19        54.3547   13.4323   58.6707 H         1 SAZ         0.0375
     35 H20        56.7495   13.0269   62.2873 H         1 SAZ         0.0375
     36 H21        55.9423   12.3234   60.8450 H         1 SAZ         0.0375
     37 H22        56.2994   11.2880   62.2688 H         1 SAZ         0.0375
     38 H23        51.6820   13.5618   61.6003 H         1 SAZ         0.2036
     39 H24        49.8106   12.1700   62.1758 H         1 SAZ         0.0778
     40 H25        49.4302   13.5970   61.1533 H         1 SAZ         0.0778
     41 H26        49.0795   13.6350   62.9146 H         1 SAZ         0.0778
@<TRIPOS>BOND
     1    1    2 1  
     2    1    3 1  
     3   14    1 1  
     4    2    4 1  
     5    3    5 1  
     6    4   12 1  
     7    5   12 2  
     8    7    6 1  
     9    6    9 2  
    10    8    7 1  
    11    8   14 1  
    12    9   10 1  
    13    9   11 1  
    14   12   13 1  
    15   14   15 1  
    16    1   16 1  
    17    2   17 1  
    18    2   18 1  
    19    3   19 1  
    20    3   20 1  
    21    4   21 1  
    22    4   22 1  
    23    5   23 1  
    24    6   24 1  
    25    7   25 1  
    26    7   26 1  
    27    8   27 1  
    28    8   28 1  
    29   10   29 1  
    30   10   30 1  
    31   10   31 1  
    32   11   32 1  
    33   11   33 1  
    34   11   34 1  
    35   13   35 1  
    36   13   36 1  
    37   13   37 1  
    38   14   38 1  
    39   15   39 1  
    40   15   40 1  
    41   15   41 1  
@<TRIPOS>SUBSTRUCTURE
     1 SAZ         1

