### 
### Created by X-TOOL on Mon Sep 10 21:12:54 2018
### 

@<TRIPOS>MOLECULE
1yz3_ligand
   22    23     1     0     0
SMALL
GAST_HUCK


@<TRIPOS>ATOM
      1 CL4        26.6830   41.4430   16.4840 Cl        1 SKA        -0.0783
      2 C4         27.2580   43.0760   16.4370 C.ar      1 SKA         0.0537
      3 C5         27.8860   43.6150   17.5590 C.ar      1 SKA         0.0180
      4 C11        28.0740   42.8070   18.8460 C.3       1 SKA        -0.0014
      5 N10        29.1060   43.4070   19.7110 N.4       1 SKA         0.2395
      6 C9         28.8180   44.8240   19.9750 C.3       1 SKA        -0.0238
      7 C8         29.0420   45.6150   18.6840 C.3       1 SKA         0.0191
      8 C6         28.3320   44.9360   17.5080 C.ar      1 SKA        -0.0300
      9 C1         28.1520   45.6970   16.3600 C.ar      1 SKA        -0.0657
     10 C2         27.5240   45.1510   15.2430 C.ar      1 SKA        -0.0610
     11 C3         27.0760   43.8370   15.2820 C.ar      1 SKA         0.0405
     12 CL3        26.3020   43.1920   13.8760 Cl        1 SKA        -0.0782
     13 H1         28.3774   41.7825   18.5845 H         1 SKA         0.0966
     14 H2         27.1203   42.7785   19.3934 H         1 SKA         0.0966
     15 H3         30.0017   43.3328   19.2547 H         1 SKA         0.2028
     16 H4         29.1325   42.9080   20.5864 H         1 SKA         0.2028
     17 H5         29.4901   45.1989   20.7609 H         1 SKA         0.0836
     18 H6         27.7736   44.9356   20.3017 H         1 SKA         0.0836
     19 H7         30.1205   45.6674   18.4741 H         1 SKA         0.0464
     20 H8         28.6429   46.6324   18.8090 H         1 SKA         0.0464
     21 H9         28.5025   46.7224   16.3332 H         1 SKA         0.0540
     22 H10        27.3858   45.7480   14.3488 H         1 SKA         0.0548
@<TRIPOS>BOND
     1    1    2 1  
     2    2    3 ar 
     3    2   11 ar 
     4    3    4 1  
     5    3    8 ar 
     6    4    5 1  
     7    5    6 1  
     8    6    7 1  
     9    7    8 1  
    10    8    9 ar 
    11    9   10 ar 
    12   10   11 ar 
    13   11   12 1  
    14    4   13 1  
    15    4   14 1  
    16    5   15 1  
    17    5   16 1  
    18    6   17 1  
    19    6   18 1  
    20    7   19 1  
    21    7   20 1  
    22    9   21 1  
    23   10   22 1  
@<TRIPOS>SUBSTRUCTURE
     1 SKA         1

