### 
### Created by X-TOOL on Mon Sep 10 21:12:52 2018
### 

@<TRIPOS>MOLECULE
1z1h_ligand
   83    85     1     0     0
SMALL
GAST_HUCK


@<TRIPOS>ATOM
      1 C1          5.6690   -0.2380   14.3420 C.3       1 HBB         0.0774
      2 C2          7.0830    0.3740   14.2550 C.3       1 HBB         0.0014
      3 C3          7.3480    1.0860   12.9450 C.ar      1 HBB        -0.0515
      4 C7          7.7410    1.0220   10.5540 C.ar      1 HBB        -0.0396
      5 C8          7.6060    0.3700   11.7680 C.ar      1 HBB        -0.0687
      6 C10         6.3250    3.0840    8.7760 C.3       1 HBB         0.0710
      7 C11         5.4980    4.2530    9.3600 C.3       1 HBB        -0.0084
      8 C12         4.0010    3.9610    9.4690 C.3       1 HBB         0.0398
      9 C13         3.5620    3.4240   10.8200 C.2       1 HBB         0.1783
     10 C16         2.9730    1.4640   12.1810 C.3       1 HBB         0.1330
     11 C19         0.5440    2.0780   11.8760 C.3       1 HBB        -0.0584
     12 C20         3.9260    0.3660   12.6940 C.2       1 HBB         0.2024
     13 N26         6.3700   -2.8180   15.8170 N.am      1 HBB        -0.2315
     14 C27         5.7070   -3.5950   16.8920 C.3       1 HBB         0.0299
     15 C30         2.9350   -2.8440   16.3270 C.3       1 HBB        -0.0626
     16 C31         2.5690   -5.0460   15.2300 C.3       1 HBB        -0.0626
     17 C35         8.5290   -4.5040   15.7960 C.ar      1 HBB         0.1084
     18 C4          7.2450    2.4740   12.8640 C.ar      1 HBB        -0.0687
     19 C5          7.3790    3.1270   11.6580 C.ar      1 HBB        -0.0396
     20 C6          7.6180    2.3990   10.5040 C.ar      1 HBB         0.0840
     21 O9          7.6630    3.0550    9.2910 O.3       1 HBB        -0.3223
     22 O14         3.4350    4.1870   11.7850 O.2       1 HBB        -0.3969
     23 N15         3.3970    2.1030   10.9100 N.am      1 HBB        -0.2654
     24 C17         1.5280    0.9200   12.0730 C.3       1 HBB        -0.0063
     25 C18         1.1470    0.1320   13.3060 C.3       1 HBB        -0.0584
     26 O21         3.9570   -0.7550   12.1550 O.2       1 HBB        -0.3945
     27 N22         4.6820    0.6980   13.7470 N.am      1 HBB        -0.2777
     28 C23         5.3120   -0.5480   15.8090 C.3       1 HBB         0.0966
     29 O24         5.2570    0.6650   16.5620 O.3       1 HBB        -0.3878
     30 C25         6.3430   -1.4910   16.4480 C.3       1 HBB         0.0579
     31 C28         4.7980   -4.5350   16.1180 C.3       1 HBB        -0.0335
     32 C29         3.3010   -4.3200   16.3450 C.3       1 HBB        -0.0453
     33 S32         7.5240   -3.5430   14.8840 S.o2      1 HBB         0.0707
     34 O33         8.3440   -2.5090   14.2480 O.2       1 HBB        -0.1501
     35 O34         6.8690   -4.3280   13.8480 O.2       1 HBB        -0.1501
     36 C36         9.6660   -3.9610   16.4060 C.ar      1 HBB        -0.0351
     37 C37        10.5150   -4.7580   17.1720 C.ar      1 HBB        -0.0599
     38 C38        10.2400   -6.1120   17.3280 C.ar      1 HBB        -0.0616
     39 C39         9.1120   -6.6680   16.7230 C.ar      1 HBB        -0.0599
     40 C40         8.2660   -5.8630   15.9600 C.ar      1 HBB        -0.0351
     41 H1          5.6532   -1.1779   13.7707 H         1 HBB         0.0602
     42 H2          7.8207   -0.4340   14.3686 H         1 HBB         0.0428
     43 H3          7.2016    1.0970   15.0755 H         1 HBB         0.0428
     44 H4          7.9414    0.4581    9.6502 H         1 HBB         0.0525
     45 H5          7.7012   -0.7091   11.8087 H         1 HBB         0.0530
     46 H6          6.3690    3.1932    7.6823 H         1 HBB         0.0612
     47 H7          5.8273    2.1366    9.0302 H         1 HBB         0.0612
     48 H8          5.6330    5.1307    8.7108 H         1 HBB         0.0315
     49 H9          5.8807    4.4789   10.3662 H         1 HBB         0.0315
     50 H10         3.7390    3.2174    8.7019 H         1 HBB         0.0503
     51 H11         3.4535    4.8954    9.2761 H         1 HBB         0.0503
     52 H12         2.9679    2.2571   12.9432 H         1 HBB         0.0802
     53 H13        -0.4791    1.6810   11.8005 H         1 HBB         0.0234
     54 H14         0.7959    2.6202   10.9527 H         1 HBB         0.0234
     55 H15         0.6087    2.7640   12.7334 H         1 HBB         0.0234
     56 H16         5.1249   -2.9375   17.5545 H         1 HBB         0.0478
     57 H17         6.4429   -4.1561   17.4866 H         1 HBB         0.0478
     58 H18         1.8534   -2.7324   16.4933 H         1 HBB         0.0232
     59 H19         3.2025   -2.4117   15.3515 H         1 HBB         0.0232
     60 H20         3.4843   -2.3203   17.1232 H         1 HBB         0.0232
     61 H21         2.8379   -6.1125   15.2485 H         1 HBB         0.0232
     62 H22         2.8552   -4.6125   14.2604 H         1 HBB         0.0232
     63 H23         1.4837   -4.9390   15.3734 H         1 HBB         0.0232
     64 H24         7.0566    3.0485   13.7638 H         1 HBB         0.0530
     65 H25         7.2976    4.2070   11.6125 H         1 HBB         0.0525
     66 H26         3.5622    1.5323   10.1056 H         1 HBB         0.1883
     67 H27         1.4704    0.2535   11.1998 H         1 HBB         0.0343
     68 H28         1.8554   -0.6981   13.4440 H         1 HBB         0.0234
     69 H29         0.1303   -0.2700   13.1846 H         1 HBB         0.0234
     70 H30         1.1782    0.7908   14.1863 H         1 HBB         0.0234
     71 H31         4.5785    1.6086   14.1472 H         1 HBB         0.1857
     72 H32         4.3249   -1.0326   15.8356 H         1 HBB         0.0634
     73 H33         5.0366    0.4664   17.4645 H         1 HBB         0.2100
     74 H34         7.3404   -1.0368   16.3537 H         1 HBB         0.0504
     75 H35         6.0949   -1.6132   17.5126 H         1 HBB         0.0504
     76 H36         5.0430   -5.5661   16.4127 H         1 HBB         0.0283
     77 H37         5.0030   -4.4016   15.0455 H         1 HBB         0.0283
     78 H38         3.0142   -4.7460   17.3177 H         1 HBB         0.0296
     79 H39         9.8889   -2.9075   16.2811 H         1 HBB         0.0637
     80 H40        11.3879   -4.3231   17.6452 H         1 HBB         0.0618
     81 H41        10.9013   -6.7352   17.9191 H         1 HBB         0.0618
     82 H42         8.8938   -7.7227   16.8457 H         1 HBB         0.0618
     83 H43         7.3930   -6.2998   15.4887 H         1 HBB         0.0637
@<TRIPOS>BOND
     1    1    2 1  
     2    1   27 1  
     3   28    1 1  
     4    2    3 1  
     5    3    5 ar 
     6    3   18 ar 
     7    5    4 ar 
     8    4   20 ar 
     9    7    6 1  
    10   21    6 1  
    11    8    7 1  
    12    9    8 1  
    13    9   22 2  
    14   23    9 am 
    15   12   10 1  
    16   10   23 1  
    17   10   24 1  
    18   24   11 1  
    19   12   26 2  
    20   27   12 am 
    21   14   13 1  
    22   13   30 1  
    23   13   33 am 
    24   31   14 1  
    25   32   15 1  
    26   32   16 1  
    27   33   17 1  
    28   17   36 ar 
    29   17   40 ar 
    30   18   19 ar 
    31   19   20 ar 
    32   20   21 1  
    33   24   25 1  
    34   28   29 1  
    35   30   28 1  
    36   31   32 1  
    37   33   34 2  
    38   33   35 2  
    39   36   37 ar 
    40   37   38 ar 
    41   38   39 ar 
    42   39   40 ar 
    43    1   41 1  
    44    2   42 1  
    45    2   43 1  
    46    4   44 1  
    47    5   45 1  
    48    6   46 1  
    49    6   47 1  
    50    7   48 1  
    51    7   49 1  
    52    8   50 1  
    53    8   51 1  
    54   10   52 1  
    55   11   53 1  
    56   11   54 1  
    57   11   55 1  
    58   14   56 1  
    59   14   57 1  
    60   15   58 1  
    61   15   59 1  
    62   15   60 1  
    63   16   61 1  
    64   16   62 1  
    65   16   63 1  
    66   18   64 1  
    67   19   65 1  
    68   23   66 1  
    69   24   67 1  
    70   25   68 1  
    71   25   69 1  
    72   25   70 1  
    73   27   71 1  
    74   28   72 1  
    75   29   73 1  
    76   30   74 1  
    77   30   75 1  
    78   31   76 1  
    79   31   77 1  
    80   32   78 1  
    81   36   79 1  
    82   37   80 1  
    83   38   81 1  
    84   39   82 1  
    85   40   83 1  
@<TRIPOS>SUBSTRUCTURE
     1 HBB         1

