### 
### Created by X-TOOL on Mon Sep 10 21:12:52 2018
### 

@<TRIPOS>MOLECULE
1z1r_ligand
   81    83     1     0     0
SMALL
GAST_HUCK


@<TRIPOS>ATOM
      1 C1          5.6850   -0.2960   14.4600 C.3       1 HBH         0.0774
      2 C2          7.1250    0.2420   14.3620 C.3       1 HBH         0.0014
      3 C3          7.4020    0.9190   13.0430 C.ar      1 HBH        -0.0515
      4 C7          7.7330    0.7960   10.6500 C.ar      1 HBH        -0.0396
      5 C8          7.5870    0.1730   11.8780 C.ar      1 HBH        -0.0687
      6 C10         6.5490    2.8780    8.7310 C.3       1 HBH         0.0710
      7 C11         5.7610    4.0910    9.2080 C.3       1 HBH        -0.0084
      8 C12         4.3070    3.7750    9.3580 C.3       1 HBH         0.0398
      9 C13         3.9320    3.3170   10.7640 C.2       1 HBH         0.1784
     10 C16         3.1990    1.4620   12.2020 C.3       1 HBH         0.1474
     11 C20         4.0640    0.3480   12.7220 C.2       1 HBH         0.2045
     12 N26         6.2170   -2.8610   15.9850 N.am      1 HBH        -0.2315
     13 C27         5.2270   -3.6060   16.7740 C.3       1 HBH         0.0299
     14 C30         1.6910   -4.4470   15.4200 C.3       1 HBH        -0.0626
     15 C31         3.0420   -5.5150   17.2380 C.3       1 HBH        -0.0626
     16 C35         8.2900   -4.5910   15.9910 C.ar      1 HBH         0.1084
     17 C4          7.3740    2.3070   12.9430 C.ar      1 HBH        -0.0687
     18 C5          7.5200    2.9430   11.7220 C.ar      1 HBH        -0.0396
     19 C6          7.6920    2.1800   10.5770 C.ar      1 HBH         0.0840
     20 O9          7.8190    2.8080    9.3610 O.3       1 HBH        -0.3223
     21 O14         3.9510    4.1070   11.7290 O.2       1 HBH        -0.3969
     22 N15         3.6480    2.0210   10.9110 N.am      1 HBH        -0.2635
     23 C17         1.7660    0.9750   12.0350 C.3       1 HBH         0.0773
     24 C18         0.8690    2.0680   11.5360 C.2       1 HBH         0.1780
     25 O19         0.4180    2.9210   12.3060 O.2       1 HBH        -0.3970
     26 N19         0.8040    2.1970   10.2320 N.am      1 HBH        -0.3007
     27 O21         4.0400   -0.7810   12.2170 O.2       1 HBH        -0.3943
     28 N22         4.7750    0.6520   13.7970 N.am      1 HBH        -0.2776
     29 C23         5.3000   -0.5290   15.9290 C.3       1 HBH         0.0966
     30 O24         5.3350    0.7120   16.6410 O.3       1 HBH        -0.3878
     31 C25         6.2590   -1.5220   16.5990 C.3       1 HBH         0.0579
     32 C28         4.0360   -3.7100   15.8310 C.3       1 HBH        -0.0335
     33 C29         2.7570   -4.2270   16.4850 C.3       1 HBH        -0.0453
     34 S32         7.3120   -3.6550   15.0540 S.o2      1 HBH         0.0707
     35 O33         8.1270   -2.6700   14.3560 O.2       1 HBH        -0.1501
     36 O34         6.6060   -4.4850   14.0820 O.2       1 HBH        -0.1501
     37 C36         9.3220   -4.0080   16.7210 C.ar      1 HBH        -0.0351
     38 C37        10.1600   -4.7870   17.5150 C.ar      1 HBH        -0.0599
     39 C38         9.9680   -6.1650   17.5780 C.ar      1 HBH        -0.0616
     40 C39         8.9390   -6.7590   16.8530 C.ar      1 HBH        -0.0599
     41 C40         8.1050   -5.9700   16.0630 C.ar      1 HBH        -0.0351
     42 H1          5.6296   -1.2599   13.9329 H         1 HBH         0.0602
     43 H2          7.8242   -0.5989   14.4802 H         1 HBH         0.0428
     44 H3          7.2855    0.9690   15.1718 H         1 HBH         0.0428
     45 H4          7.8783    0.2060    9.7523 H         1 HBH         0.0525
     46 H5          7.6168   -0.9091   11.9353 H         1 HBH         0.0530
     47 H6          6.6923    2.9491    7.6427 H         1 HBH         0.0612
     48 H7          5.9810    1.9661    8.9673 H         1 HBH         0.0612
     49 H8          5.8766    4.9032    8.4752 H         1 HBH         0.0315
     50 H9          6.1585    4.4156   10.1809 H         1 HBH         0.0315
     51 H10         4.0486    2.9744    8.6493 H         1 HBH         0.0503
     52 H11         3.7267    4.6782    9.1185 H         1 HBH         0.0503
     53 H12         3.2142    2.2714   12.9468 H         1 HBH         0.0826
     54 H13         4.9586   -3.0577   17.6890 H         1 HBH         0.0478
     55 H14         5.6060   -4.6033   17.0419 H         1 HBH         0.0478
     56 H15         0.7708   -4.8194   15.8938 H         1 HBH         0.0232
     57 H16         2.0509   -5.1849   14.6879 H         1 HBH         0.0232
     58 H17         1.4812   -3.4957   14.9091 H         1 HBH         0.0232
     59 H18         3.8135   -5.3311   18.0002 H         1 HBH         0.0232
     60 H19         3.3982   -6.2807   16.5332 H         1 HBH         0.0232
     61 H20         2.1208   -5.8660   17.7260 H         1 HBH         0.0232
     62 H21         7.2352    2.9016   13.8387 H         1 HBH         0.0530
     63 H22         7.5001    4.0251   11.6617 H         1 HBH         0.0525
     64 H23         3.7420    1.4110   10.1242 H         1 HBH         0.1884
     65 H24         1.3926    0.6223   13.0077 H         1 HBH         0.0551
     66 H25         1.7524    0.1444   11.3140 H         1 HBH         0.0551
     67 H26         0.2253    2.9054    9.8279 H         1 HBH         0.1814
     68 H27         1.3332    1.5870    9.6422 H         1 HBH         0.1814
     69 H28         4.6893    1.5727   14.1778 H         1 HBH         0.1857
     70 H29         4.2797   -0.9383   15.9671 H         1 HBH         0.0634
     71 H30         5.0963    0.5622   17.5482 H         1 HBH         0.2100
     72 H31         7.2836   -1.1302   16.5175 H         1 HBH         0.0504
     73 H32         5.9847   -1.6135   17.6603 H         1 HBH         0.0504
     74 H33         4.3042   -4.3937   15.0121 H         1 HBH         0.0283
     75 H34         3.8328   -2.7094   15.4217 H         1 HBH         0.0283
     76 H35         2.3928   -3.4744   17.1998 H         1 HBH         0.0296
     77 H36         9.4750   -2.9360   16.6709 H         1 HBH         0.0637
     78 H37        10.9587   -4.3225   18.0819 H         1 HBH         0.0618
     79 H38        10.6204   -6.7753   18.1920 H         1 HBH         0.0618
     80 H39         8.7869   -7.8311   16.9027 H         1 HBH         0.0618
     81 H40         7.3041   -6.4340   15.4987 H         1 HBH         0.0637
@<TRIPOS>BOND
     1    1    2 1  
     2    1   28 1  
     3   29    1 1  
     4    2    3 1  
     5    3    5 ar 
     6    3   17 ar 
     7    5    4 ar 
     8    4   19 ar 
     9    7    6 1  
    10   20    6 1  
    11    8    7 1  
    12    9    8 1  
    13    9   21 2  
    14   22    9 am 
    15   11   10 1  
    16   10   22 1  
    17   10   23 1  
    18   11   27 2  
    19   28   11 am 
    20   13   12 1  
    21   12   31 1  
    22   12   34 am 
    23   32   13 1  
    24   33   14 1  
    25   33   15 1  
    26   34   16 1  
    27   16   37 ar 
    28   16   41 ar 
    29   17   18 ar 
    30   18   19 ar 
    31   19   20 1  
    32   23   24 1  
    33   24   25 2  
    34   24   26 am 
    35   29   30 1  
    36   31   29 1  
    37   32   33 1  
    38   34   35 2  
    39   34   36 2  
    40   37   38 ar 
    41   38   39 ar 
    42   39   40 ar 
    43   40   41 ar 
    44    1   42 1  
    45    2   43 1  
    46    2   44 1  
    47    4   45 1  
    48    5   46 1  
    49    6   47 1  
    50    6   48 1  
    51    7   49 1  
    52    7   50 1  
    53    8   51 1  
    54    8   52 1  
    55   10   53 1  
    56   13   54 1  
    57   13   55 1  
    58   14   56 1  
    59   14   57 1  
    60   14   58 1  
    61   15   59 1  
    62   15   60 1  
    63   15   61 1  
    64   17   62 1  
    65   18   63 1  
    66   22   64 1  
    67   23   65 1  
    68   23   66 1  
    69   26   67 1  
    70   26   68 1  
    71   28   69 1  
    72   29   70 1  
    73   30   71 1  
    74   31   72 1  
    75   31   73 1  
    76   32   74 1  
    77   32   75 1  
    78   33   76 1  
    79   37   77 1  
    80   38   78 1  
    81   39   79 1  
    82   40   80 1  
    83   41   81 1  
@<TRIPOS>SUBSTRUCTURE
     1 HBH         1

