### 
### Created by X-TOOL on Mon Sep 10 21:12:53 2018
### 

@<TRIPOS>MOLECULE
1z2b_ligand
  119   127     1     0     0
SMALL
GAST_HUCK


@<TRIPOS>ATOM
      1 H1         95.2002   70.7647   -7.3578 H         1 VLB         0.0231
      2 H2         94.3974   71.4112   -8.8289 H         1 VLB         0.0231
      3 H3         94.9828   69.7133   -8.7979 H         1 VLB         0.0231
      4 H4         92.7570   70.8780   -7.0578 H         1 VLB         0.0292
      5 H5         93.3424   69.1800   -7.0268 H         1 VLB         0.0292
      6 H6         93.5452   68.7616   -9.7940 H         1 VLB         0.2104
      7 H7         90.4718   70.3654   -7.5904 H         1 VLB         0.0843
      8 H8         90.9133   68.6421   -7.3412 H         1 VLB         0.0843
      9 H9         92.9894   70.8906  -10.3509 H         1 VLB         0.0299
     10 H10        91.8512   71.7589   -9.2659 H         1 VLB         0.0299
     11 H11        90.6993   71.4658  -11.2984 H         1 VLB         0.0337
     12 H12        91.4953   68.5470  -11.3116 H         1 VLB         0.0066
     13 H13        92.3757   69.8573  -12.1688 H         1 VLB         0.0066
     14 H14        88.8364   69.9628  -10.6942 H         1 VLB         0.0817
     15 H15        89.3498   71.0656   -9.3725 H         1 VLB         0.0817
     16 H16        88.9265   68.8633   -8.6552 H         1 VLB         0.2037
     17 H17        90.4690   67.1065   -8.7218 H         1 VLB         0.0850
     18 H18        91.3211   67.9745  -10.0435 H         1 VLB         0.0850
     19 H19        88.7257   66.5207  -10.0622 H         1 VLB         0.0563
     20 H20        90.2539   66.1605  -10.9348 H         1 VLB         0.0563
     21 H21        87.2608   65.5064  -10.7459 H         1 VLB         0.0676
     22 H22        85.1077   64.8659  -11.7934 H         1 VLB         0.0555
     23 H23        84.4431   65.9108  -13.9270 H         1 VLB         0.0663
     24 H24        85.8651   67.6277  -14.9942 H         1 VLB         0.0578
     25 H25        88.2695   68.9529  -14.6684 H         1 VLB         0.2205
     26 H26        93.5959   66.4748  -14.8308 H         1 VLB         0.0575
     27 H27        92.9190   67.7633  -15.8834 H         1 VLB         0.0575
     28 H28        91.8814   66.3935  -15.3602 H         1 VLB         0.0575
     29 H29        88.2753   70.7693  -12.5402 H         1 VLB         0.0951
     30 H30        86.3826   71.6853  -14.1821 H         1 VLB         0.0564
     31 H31        86.8666   74.4012  -11.4514 H         1 VLB         0.0193
     32 H32        87.6308   72.7858  -11.2696 H         1 VLB         0.0193
     33 H33        84.8898   73.1261  -11.1604 H         1 VLB         0.0804
     34 H34        85.6355   71.6361  -11.8314 H         1 VLB         0.0804
     35 H35        84.8229   74.0646  -13.3233 H         1 VLB         0.2052
     36 H36        83.1412   72.3258  -13.0137 H         1 VLB         0.1258
     37 H37        84.3171   71.1956  -13.7665 H         1 VLB         0.1258
     38 H38        82.6117   72.7068  -15.2639 H         1 VLB         0.1586
     39 H39        84.2832   73.5946  -16.7947 H         1 VLB         0.0469
     40 H40        87.6735   72.0888  -16.0831 H         1 VLB         0.0120
     41 H41        87.0050   73.0807  -17.4232 H         1 VLB         0.0120
     42 H42        86.5034   70.6820  -17.7444 H         1 VLB         0.0219
     43 H43        84.9993   71.6319  -17.4950 H         1 VLB         0.0219
     44 H44        85.6678   70.6400  -16.1549 H         1 VLB         0.0219
     45 H45        87.4467   74.6837  -16.2902 H         1 VLB         0.0517
     46 H46        86.0515   75.3223  -19.8390 H         1 VLB         0.0483
     47 H47        84.8107   76.3093  -18.9948 H         1 VLB         0.0483
     48 H48        84.7229   74.5160  -18.9383 H         1 VLB         0.0483
     49 H49        87.5823   79.4074  -17.1205 H         1 VLB         0.0576
     50 H50        88.7050   78.9336  -15.8008 H         1 VLB         0.0576
     51 H51        87.1366   79.7163  -15.4081 H         1 VLB         0.0576
     52 H52        84.7834   75.9524  -14.2710 H         1 VLB         0.2079
     53 H53        88.1594   75.4096  -12.9365 H         1 VLB         0.0467
     54 H54        90.8494   75.2516  -15.0838 H         1 VLB         0.0507
     55 H55        90.3117   75.3156  -13.3711 H         1 VLB         0.0507
     56 H56        89.6374   76.4728  -14.5681 H         1 VLB         0.0507
     57 H57        91.3063   73.3082  -15.4679 H         1 VLB         0.0551
     58 H58        93.7534   71.2949  -16.1311 H         1 VLB         0.0602
     59 H59        92.9774   72.7764  -15.4758 H         1 VLB         0.0602
     60 H60        92.1288   71.7911  -16.7151 H         1 VLB         0.0602
     61 C71        94.5350   70.5200   -8.1990 C.3       1 VLB        -0.0625
     62 C70        93.1840   70.0640   -7.6620 C.3       1 VLB        -0.0218
     63 C54        92.1860   69.7000   -8.7540 C.3       1 VLB         0.1056
     64 O72        92.6970   68.5560   -9.4190 O.3       1 VLB        -0.3833
     65 C55        90.8100   69.4440   -8.0870 C.3       1 VLB        -0.0021
     66 C53        92.0490   70.8100   -9.7860 C.3       1 VLB        -0.0129
     67 C52        90.9130   70.5330  -10.7560 C.3       1 VLB        -0.0132
     68 C51        91.3910   69.5210  -11.8120 C.3       1 VLB        -0.0842
     69 C69        89.6380   70.1930   -9.9770 C.3       1 VLB        -0.0301
     70 N56        89.8180   69.0450   -9.0890 N.4       1 VLB         0.2396
     71 C57        90.3390   67.7600   -9.5970 C.3       1 VLB        -0.0170
     72 C58        89.5650   66.9590  -10.6220 C.3       1 VLB         0.0373
     73 C59        88.9490   67.4680  -11.9110 C.2       1 VLB         0.0083
     74 C60        87.7400   66.9300  -12.2820 C.ar      1 VLB         0.0327
     75 C61        86.9450   65.9690  -11.6740 C.ar      1 VLB        -0.0502
     76 C62        85.7470   65.6060  -12.2610 C.ar      1 VLB        -0.0619
     77 C63        85.3750   66.2020  -13.4560 C.ar      1 VLB        -0.0612
     78 C64        86.1730   67.1660  -14.0630 C.ar      1 VLB        -0.0266
     79 C65        87.3580   67.5250  -13.4650 C.ar      1 VLB         0.0843
     80 N66        88.2900   68.3810  -13.8120 N.pl3     1 VLB        -0.2831
     81 C67        89.2730   68.4100  -12.9000 C.2       1 VLB         0.0154
     82 C68        90.5010   69.3110  -13.0470 C.3       1 VLB         0.0468
     83 C73        91.1890   68.5510  -14.1680 C.2       1 VLB         0.1785
     84 O74        90.7070   68.5840  -15.3070 O.2       1 VLB        -0.3632
     85 O75        92.3020   67.8130  -13.8930 O.3       1 VLB        -0.2989
     86 C76        92.6980   67.0670  -15.0610 C.3       1 VLB         0.0630
     87 C15        90.1510   70.7410  -13.5700 C.ar      1 VLB        -0.0301
     88 C14        88.9500   71.3230  -13.1830 C.ar      1 VLB        -0.0460
     89 C13        88.5970   72.5930  -13.6000 C.ar      1 VLB        -0.0163
     90 C12        87.3710   73.4280  -13.3440 C.3       1 VLB         0.0118
     91 C19        86.2230   72.7720  -14.1220 C.3       1 VLB        -0.0730
     92 C11        86.9340   73.3870  -11.8720 C.3       1 VLB        -0.0352
     93 C10        85.5570   72.7280  -11.9390 C.3       1 VLB        -0.0395
     94 N9         85.0830   73.0920  -13.2740 N.4       1 VLB         0.2508
     95 C8         83.9930   72.2450  -13.7050 C.3       1 VLB         0.0404
     96 C7         83.6550   72.7240  -14.9520 C.2       1 VLB         0.0288
     97 C6         84.6200   73.2310  -15.8250 C.2       1 VLB        -0.0730
     98 C5         85.9840   73.3050  -15.5440 C.3       1 VLB        -0.0031
     99 C20        86.7500   72.4580  -16.5530 C.3       1 VLB        -0.0849
    100 C21        85.9230   71.2710  -17.0190 C.3       1 VLB        -0.0762
    101 C4         86.4780   74.7560  -15.7740 C.3       1 VLB         0.0963
    102 O28        85.5910   75.4470  -16.5940 O.3       1 VLB        -0.2854
    103 C29        86.1840   75.3800  -17.8010 C.2       1 VLB         0.2297
    104 C30        85.4010   75.3820  -18.9540 C.3       1 VLB         0.0372
    105 O31        87.4120   75.3000  -17.8460 O.2       1 VLB        -0.3708
    106 C3         86.6910   75.5940  -14.5270 C.3       1 VLB         0.1906
    107 C23        87.0350   77.1300  -14.7670 C.2       1 VLB         0.2906
    108 O24        87.3290   77.8760  -13.8170 O.2       1 VLB        -0.3093
    109 O25        87.0090   77.7070  -16.0210 O.3       1 VLB        -0.2787
    110 C26        87.6480   79.0230  -16.0920 C.3       1 VLB         0.0650
    111 O27        85.4790   75.5310  -13.7800 O.3       1 VLB        -0.3809
    112 C2         87.8090   74.8150  -13.7930 C.3       1 VLB         0.0643
    113 N1         88.9190   74.5030  -14.7200 N.pl3     1 VLB        -0.2913
    114 C22        89.9960   75.4440  -14.4170 C.3       1 VLB         0.0260
    115 C18        89.4370   73.3120  -14.4300 C.ar      1 VLB         0.0786
    116 C17        90.6400   72.7490  -14.8210 C.ar      1 VLB         0.0304
    117 C16        91.0040   71.4830  -14.3980 C.ar      1 VLB         0.1184
    118 O32        92.1900   70.9810  -14.8110 O.3       1 VLB        -0.2932
    119 C33        92.7970   71.7550  -15.8420 C.3       1 VLB         0.0710
@<TRIPOS>BOND
     1   61    1 1  
     2   61    2 1  
     3   61    3 1  
     4   62    4 1  
     5   62    5 1  
     6   64    6 1  
     7   65    7 1  
     8   65    8 1  
     9   66    9 1  
    10   66   10 1  
    11   67   11 1  
    12   68   12 1  
    13   68   13 1  
    14   69   14 1  
    15   69   15 1  
    16   70   16 1  
    17   71   17 1  
    18   71   18 1  
    19   72   19 1  
    20   72   20 1  
    21   75   21 1  
    22   76   22 1  
    23   77   23 1  
    24   78   24 1  
    25   80   25 1  
    26   86   26 1  
    27   86   27 1  
    28   86   28 1  
    29   88   29 1  
    30   91   30 1  
    31   92   31 1  
    32   92   32 1  
    33   93   33 1  
    34   93   34 1  
    35   94   35 1  
    36   95   36 1  
    37   95   37 1  
    38   96   38 1  
    39   97   39 1  
    40   99   40 1  
    41   99   41 1  
    42  100   42 1  
    43  100   43 1  
    44  100   44 1  
    45  101   45 1  
    46  104   46 1  
    47  104   47 1  
    48  104   48 1  
    49  110   49 1  
    50  110   50 1  
    51  110   51 1  
    52  111   52 1  
    53  112   53 1  
    54  114   54 1  
    55  114   55 1  
    56  114   56 1  
    57  116   57 1  
    58  119   58 1  
    59  119   59 1  
    60  119   60 1  
    61   62   61 1  
    62   63   62 1  
    63   63   64 1  
    64   63   65 1  
    65   66   63 1  
    66   70   65 1  
    67   67   66 1  
    68   68   67 1  
    69   67   69 1  
    70   82   68 1  
    71   69   70 1  
    72   71   70 1  
    73   72   71 1  
    74   73   72 1  
    75   73   74 1  
    76   81   73 2  
    77   74   75 ar 
    78   79   74 ar 
    79   75   76 ar 
    80   77   76 ar 
    81   78   77 ar 
    82   79   78 ar 
    83   80   79 1  
    84   81   80 1  
    85   82   81 1  
    86   82   83 1  
    87   87   82 1  
    88   83   84 2  
    89   83   85 1  
    90   85   86 1  
    91   87   88 ar 
    92  117   87 ar 
    93   88   89 ar 
    94   89   90 1  
    95  115   89 ar 
    96   90   91 1  
    97   90   92 1  
    98  112   90 1  
    99   91   94 1  
   100   91   98 1  
   101   92   93 1  
   102   93   94 1  
   103   94   95 1  
   104   95   96 1  
   105   97   96 2  
   106   98   97 1  
   107   98   99 1  
   108  101   98 1  
   109   99  100 1  
   110  101  102 1  
   111  106  101 1  
   112  102  103 1  
   113  103  104 1  
   114  103  105 2  
   115  106  107 1  
   116  106  111 1  
   117  112  106 1  
   118  107  108 2  
   119  107  109 1  
   120  109  110 1  
   121  113  112 1  
   122  113  114 1  
   123  115  113 1  
   124  116  115 ar 
   125  117  116 ar 
   126  118  117 1  
   127  118  119 1  
@<TRIPOS>SUBSTRUCTURE
     1 VLB         1

