### 
### Created by X-TOOL on Mon Sep 10 21:12:52 2018
### 

@<TRIPOS>MOLECULE
1z34_ligand
   31    33     1     0     0
SMALL
GAST_HUCK


@<TRIPOS>ATOM
      1 O5'       -19.1010  -42.6760   -5.7350 O.3       1 2FD        -0.3924
      2 C5'       -18.2610  -41.5530   -5.9760 C.3       1 2FD         0.0729
      3 C4'       -16.8700  -41.7650   -5.3390 C.3       1 2FD         0.1110
      4 O4'       -16.1410  -42.9610   -5.8020 O.3       1 2FD        -0.3394
      5 C1'       -15.2860  -42.6540   -6.9280 C.3       1 2FD         0.1745
      6 N9        -16.0250  -43.1800   -8.1550 N.pl3     1 2FD        -0.1975
      7 C4        -16.7730  -42.5690   -9.1660 C.ar      1 2FD         0.1538
      8 N3        -17.0560  -41.2300   -9.3320 N.ar      1 2FD        -0.2419
      9 C2        -17.8170  -40.9500  -10.4200 C.ar      1 2FD         0.2604
     10 F         -18.1340  -39.7110  -10.6520 F         1 2FD        -0.1365
     11 N1        -18.2890  -41.8500  -11.3040 N.ar      1 2FD        -0.2370
     12 C6        -17.9980  -43.1690  -11.1210 C.ar      1 2FD         0.1254
     13 N6        -18.4690  -44.0280  -11.9940 N.pl3     1 2FD        -0.3163
     14 C5        -17.2010  -43.5740  -10.0040 C.ar      1 2FD         0.0976
     15 N7        -16.7550  -44.7890   -9.5670 N.2       1 2FD        -0.3004
     16 C8        -16.0910  -44.4690   -8.5030 C.2       1 2FD         0.1094
     17 C2'       -15.1080  -41.1090   -6.8090 C.3       1 2FD         0.0314
     18 C3'       -15.9100  -40.5960   -5.5770 C.3       1 2FD         0.0886
     19 O3'       -15.1230  -40.4790   -4.4170 O.3       1 2FD        -0.3890
     20 H1        -19.9501  -42.5264   -6.1340 H         1 2FD         0.2095
     21 H2        -18.7244  -40.6554   -5.5407 H         1 2FD         0.0584
     22 H3        -18.1441  -41.4158   -7.0611 H         1 2FD         0.0584
     23 H4        -17.0350  -41.8647   -4.2560 H         1 2FD         0.0646
     24 H5        -14.3062  -43.1486   -6.8548 H         1 2FD         0.0968
     25 H6        -18.2691  -45.0328  -11.8873 H         1 2FD         0.1820
     26 H7        -19.0386  -43.6975  -12.7860 H         1 2FD         0.1820
     27 H8        -15.5970  -45.2330   -7.9045 H         1 2FD         0.1328
     28 H9        -15.4846  -40.6236   -7.7215 H         1 2FD         0.0345
     29 H10       -14.0421  -40.8701   -6.6798 H         1 2FD         0.0345
     30 H11       -16.4272  -39.6495   -5.7928 H         1 2FD         0.0622
     31 H12       -14.4153  -39.8657   -4.5764 H         1 2FD         0.2099
@<TRIPOS>BOND
     1    1    2 1  
     2    2    3 1  
     3    3    4 1  
     4    3   18 1  
     5    4    5 1  
     6    5    6 1  
     7    5   17 1  
     8    6    7 1  
     9    6   16 1  
    10    7    8 ar 
    11    7   14 ar 
    12    8    9 ar 
    13    9   10 1  
    14    9   11 ar 
    15   11   12 ar 
    16   12   13 1  
    17   12   14 ar 
    18   14   15 1  
    19   15   16 2  
    20   17   18 1  
    21   18   19 1  
    22    1   20 1  
    23    2   21 1  
    24    2   22 1  
    25    3   23 1  
    26    5   24 1  
    27   13   25 1  
    28   13   26 1  
    29   16   27 1  
    30   17   28 1  
    31   17   29 1  
    32   18   30 1  
    33   19   31 1  
@<TRIPOS>SUBSTRUCTURE
     1 2FD         1

