### 
### Created by X-TOOL on Mon Sep 10 21:12:53 2018
### 

@<TRIPOS>MOLECULE
1z3c_ligand
   51    53     1     0     0
SMALL
GAST_HUCK


@<TRIPOS>ATOM
      1 N          13.3520   30.1670   91.2330 N.4       1 SA8         0.2328
      2 CA         13.9720   31.0910   92.2340 C.3       1 SA8         0.0332
      3 C          13.1940   32.3900   92.3540 C.2       1 SA8         0.0846
      4 O          12.1940   32.5580   91.6530 O.co2     1 SA8        -0.5643
      5 OXT        13.6660   33.2230   93.2010 O.co2     1 SA8        -0.5643
      6 CB         15.4110   31.4330   91.8530 C.3       1 SA8         0.0425
      7 CG         15.9290   30.5380   90.8050 C.3       1 SA8        -0.0252
      8 ND         17.6110   30.8330   90.2350 N.4       1 SA8         0.2352
      9 CE         17.4310   32.3390   89.2770 C.3       1 SA8        -0.0430
     10 C5         17.8040   29.6040   89.0590 C.3       1 SA8        -0.0026
     11 C4         18.0040   28.2250   89.6270 C.3       1 SA8         0.1300
     12 O4         18.0560   27.3540   88.4990 O.3       1 SA8        -0.3338
     13 C3         19.3930   28.0230   90.2500 C.3       1 SA8         0.1174
     14 O3         19.1480   27.9260   91.6880 O.3       1 SA8        -0.3863
     15 C2         19.8710   26.6740   89.7340 C.3       1 SA8         0.1386
     16 O2         20.4780   25.7300   90.5810 O.3       1 SA8        -0.3836
     17 C1         18.6330   26.2000   88.9530 C.3       1 SA8         0.2011
     18 N9         18.9140   25.3370   87.8390 N.pl3     1 SA8        -0.1919
     19 C8         19.7200   25.5360   86.7550 C.2       1 SA8         0.1123
     20 N7         19.7330   24.5300   85.9260 N.2       1 SA8        -0.2958
     21 C5         18.8730   23.6050   86.5050 C.ar      1 SA8         0.1045
     22 C6         18.4490   22.2990   86.1130 C.ar      1 SA8         0.1298
     23 N6         18.8890   21.7110   84.9710 N.pl3     1 SA8        -0.3152
     24 N1         17.5590   21.6140   86.9220 N.ar      1 SA8        -0.2698
     25 C2         17.1320   22.2240   88.0610 C.ar      1 SA8         0.0533
     26 N3         17.4750   23.4500   88.5240 N.ar      1 SA8        -0.2714
     27 C4         18.3560   24.0920   87.6860 C.ar      1 SA8         0.1613
     28 H1         13.8926   29.3179   91.1796 H         1 SA8         0.2010
     29 H2         13.3362   30.6126   90.3290 H         1 SA8         0.2010
     30 H3         12.4097   29.9481   91.5163 H         1 SA8         0.2010
     31 H4         13.9730   30.5870   93.2117 H         1 SA8         0.1026
     32 H5         16.0469   31.3405   92.7458 H         1 SA8         0.0391
     33 H6         15.4447   32.4689   91.4845 H         1 SA8         0.0391
     34 H7         15.2632   30.6270   89.9339 H         1 SA8         0.0817
     35 H8         15.8866   29.5105   91.1955 H         1 SA8         0.0817
     36 H9         18.3191   30.8605   90.9519 H         1 SA8         0.2031
     37 H10        18.4086   32.6310   88.8658 H         1 SA8         0.0778
     38 H11        17.0510   33.1426   89.9250 H         1 SA8         0.0778
     39 H12        16.7232   32.1669   88.4528 H         1 SA8         0.0778
     40 H13        18.6805   29.8524   88.4426 H         1 SA8         0.0841
     41 H14        16.9038   29.5883   88.4270 H         1 SA8         0.0841
     42 H15        17.2015   27.9712   90.3352 H         1 SA8         0.0678
     43 H16        20.0957   28.8324   90.0028 H         1 SA8         0.0649
     44 H17        18.5737   27.1893   91.8613 H         1 SA8         0.2100
     45 H18        20.6569   26.8916   88.9957 H         1 SA8         0.0676
     46 H19        19.8730   25.4927   91.2739 H         1 SA8         0.2101
     47 H20        17.9516   25.6723   89.6365 H         1 SA8         0.0996
     48 H21        20.2961   26.4467   86.5982 H         1 SA8         0.1349
     49 H22        18.5624   20.7673   84.7188 H         1 SA8         0.1820
     50 H23        19.5494   22.2086   84.3569 H         1 SA8         0.1820
     51 H24        16.4340   21.6617   88.6707 H         1 SA8         0.0996
@<TRIPOS>BOND
     1    2    1 1  
     2    2    3 1  
     3    6    2 1  
     4    3    4 ar 
     5    3    5 ar 
     6    7    6 1  
     7    8   10 1  
     8   10   11 1  
     9   11   12 1  
    10   11   13 1  
    11   12   17 1  
    12   13   14 1  
    13   13   15 1  
    14   15   16 1  
    15   15   17 1  
    16   17   18 1  
    17   18   19 1  
    18   18   27 1  
    19   19   20 2  
    20   21   20 1  
    21   21   22 ar 
    22   27   21 ar 
    23   22   23 1  
    24   22   24 ar 
    25   25   24 ar 
    26   26   25 ar 
    27   27   26 ar 
    28    8    9 1  
    29    7    8 1  
    30    1   28 1  
    31    1   29 1  
    32    1   30 1  
    33    2   31 1  
    34    6   32 1  
    35    6   33 1  
    36    7   34 1  
    37    7   35 1  
    38    8   36 1  
    39    9   37 1  
    40    9   38 1  
    41    9   39 1  
    42   10   40 1  
    43   10   41 1  
    44   11   42 1  
    45   13   43 1  
    46   14   44 1  
    47   15   45 1  
    48   16   46 1  
    49   17   47 1  
    50   19   48 1  
    51   23   49 1  
    52   23   50 1  
    53   25   51 1  
@<TRIPOS>SUBSTRUCTURE
     1 SA8         1

