### 
### Created by X-TOOL on Mon Sep 10 21:12:53 2018
### 

@<TRIPOS>MOLECULE
1z3j_ligand
   41    41     1     0     0
SMALL
GAST_HUCK


@<TRIPOS>ATOM
      1 C1          5.8860   -5.7600   -5.2560 C.ar      1 NGH        -0.0440
      2 C2          5.7230   -5.7310   -3.8800 C.ar      1 NGH        -0.0313
      3 C3          6.2720   -4.6790   -3.1570 C.ar      1 NGH         0.0908
      4 C4          6.9760   -3.6680   -3.8150 C.ar      1 NGH        -0.0313
      5 C5          7.1220   -3.7230   -5.1870 C.ar      1 NGH        -0.0440
      6 C6          6.5820   -4.7640   -5.9320 C.ar      1 NGH         0.0973
      7 O1          6.1980   -4.5290   -1.7870 O.3       1 NGH        -0.3212
      8 C7          7.3200   -3.9920   -1.1330 C.3       1 NGH         0.0594
      9 S1          6.8040   -4.8360   -7.7200 S.o2      1 NGH         0.0676
     10 O2          8.2610   -4.9400   -7.9810 O.2       1 NGH        -0.1514
     11 O3          5.9980   -5.9490   -8.2590 O.2       1 NGH        -0.1514
     12 N           6.1950   -3.2670   -8.3020 N.am      1 NGH        -0.2163
     13 C9          7.0600   -2.3800   -9.1350 C.3       1 NGH         0.0344
     14 C10         5.0940   -2.5500   -7.5430 C.3       1 NGH         0.1202
     15 C11         5.6450   -1.4570   -6.6760 C.2       1 NGH         0.2177
     16 N1          4.8660   -0.5520   -6.0710 N.am      1 NGH        -0.1629
     17 O4          5.2230    0.5390   -5.4600 O.3       1 NGH        -0.2717
     18 O5          6.9100   -1.2980   -6.6500 O.2       1 NGH        -0.3952
     19 C12         6.9630   -2.6650  -10.6380 C.3       1 NGH        -0.0294
     20 C13         7.5810   -4.0070  -10.9930 C.3       1 NGH        -0.0612
     21 C14         7.6860   -1.5510  -11.3790 C.3       1 NGH        -0.0612
     22 H1          5.4594   -6.5813   -5.8204 H         1 NGH         0.0608
     23 H2          5.1749   -6.5180   -3.3748 H         1 NGH         0.0542
     24 H3          7.4046   -2.8462   -3.2528 H         1 NGH         0.0542
     25 H4          7.6699   -2.9368   -5.6938 H         1 NGH         0.0608
     26 H5          7.1203   -3.9306   -0.0530 H         1 NGH         0.0577
     27 H6          7.5263   -2.9853   -1.5255 H         1 NGH         0.0577
     28 H7          8.1916   -4.6397   -1.3084 H         1 NGH         0.0577
     29 H8          8.1051   -2.5191   -8.8214 H         1 NGH         0.0482
     30 H9          6.7600   -1.3365   -8.9588 H         1 NGH         0.0482
     31 H10         4.5654   -3.2769   -6.9088 H         1 NGH         0.0719
     32 H11         4.3890   -2.1122   -8.2649 H         1 NGH         0.0719
     33 H12         3.8838   -0.7388   -6.0915 H         1 NGH         0.2217
     34 H13         5.7999    0.3216   -4.7372 H         1 NGH         0.2490
     35 H14         5.9038   -2.6741  -10.9346 H         1 NGH         0.0311
     36 H15         7.4928   -4.1761  -12.0763 H         1 NGH         0.0233
     37 H16         7.0544   -4.8076  -10.4529 H         1 NGH         0.0233
     38 H17         8.6431   -4.0088  -10.7069 H         1 NGH         0.0233
     39 H18         7.2337   -0.5830  -11.1175 H         1 NGH         0.0233
     40 H19         7.5992   -1.7152  -12.4632 H         1 NGH         0.0233
     41 H20         8.7480   -1.5489  -11.0923 H         1 NGH         0.0233
@<TRIPOS>BOND
     1    1    2 ar 
     2    1    6 ar 
     3    2    3 ar 
     4    3    4 ar 
     5    3    7 1  
     6    4    5 ar 
     7    5    6 ar 
     8    6    9 1  
     9    7    8 1  
    10    9   10 2  
    11    9   11 2  
    12    9   12 am 
    13   12   13 1  
    14   12   14 1  
    15   13   19 1  
    16   14   15 1  
    17   15   16 am 
    18   15   18 2  
    19   16   17 1  
    20   19   20 1  
    21   19   21 1  
    22    1   22 1  
    23    2   23 1  
    24    4   24 1  
    25    5   25 1  
    26    8   26 1  
    27    8   27 1  
    28    8   28 1  
    29   13   29 1  
    30   13   30 1  
    31   14   31 1  
    32   14   32 1  
    33   16   33 1  
    34   17   34 1  
    35   19   35 1  
    36   20   36 1  
    37   20   37 1  
    38   20   38 1  
    39   21   39 1  
    40   21   40 1  
    41   21   41 1  
@<TRIPOS>SUBSTRUCTURE
     1 NGH         1

