### 
### Created by X-TOOL on Sun Sep  9 21:50:13 2018
### 

@<TRIPOS>MOLECULE
1z3t_ligand
   45    46     1     0     0
SMALL
GAST_HUCK


@<TRIPOS>ATOM
      1 C1          3.0130   10.7670   23.6450 C.3       1 NON         0.1884
      2 C2          4.2470    9.8970   23.2410 C.3       1 NON         0.1341
      3 C3          4.2060    8.6560   24.1070 C.3       1 NON         0.1141
      4 C4          4.0640    9.0070   25.5540 C.3       1 NON         0.1119
      5 C5          2.8220    9.8650   25.7890 C.3       1 NON         0.1130
      6 C6          2.6210   10.2410   27.2480 C.3       1 NON         0.0730
      7 O2          4.3390    9.5460   21.8170 O.3       1 NON        -0.3841
      8 O3          5.3420    7.7740   23.9190 O.3       1 NON        -0.3864
      9 O4          3.9450    7.7710   26.2830 O.3       1 NON        -0.3865
     10 O5          3.0240   11.0590   25.0590 O.3       1 NON        -0.3405
     11 O6          3.7610   10.8780   27.7330 O.3       1 NON        -0.3924
     12 C1'         0.7070   15.1070   21.7890 C.3       1 NON         0.1854
     13 C2'         0.9420   15.0460   23.2800 C.3       1 NON         0.1339
     14 C3'         2.0910   14.1440   23.5860 C.3       1 NON         0.1144
     15 C4'         1.8880   12.7720   22.8890 C.3       1 NON         0.1184
     16 C5'         1.6550   12.9800   21.4230 C.3       1 NON         0.1134
     17 C6'         1.3560   11.6520   20.7220 C.3       1 NON         0.0730
     18 O1'        -0.4770   15.8680   21.6060 O.3       1 NON        -0.3649
     19 O2'         1.3540   16.3480   23.6860 O.3       1 NON        -0.3841
     20 O3'         2.1700   13.9510   24.9750 O.3       1 NON        -0.3864
     21 O4'         3.0560   11.9980   23.0030 O.3       1 NON        -0.3401
     22 O5'         0.5240   13.8130   21.2330 O.3       1 NON        -0.3407
     23 O6'         0.4290   10.8570   21.4560 O.3       1 NON        -0.3924
     24 H1          2.0903   10.2312   23.3774 H         1 NON         0.0938
     25 H2          5.1542   10.4680   23.4880 H         1 NON         0.0671
     26 H3          3.3082    8.0926   23.8129 H         1 NON         0.0648
     27 H4          4.9542    9.5580   25.8914 H         1 NON         0.0647
     28 H5          1.9311    9.3324   25.4249 H         1 NON         0.0647
     29 H6          2.4328    9.3312   27.8369 H         1 NON         0.0584
     30 H7          1.7591   10.9189   27.3349 H         1 NON         0.0584
     31 H8          4.3631   10.3407   21.2970 H         1 NON         0.2101
     32 H9          5.2110    6.9791   24.4224 H         1 NON         0.2100
     33 H10         4.7192    7.2410   26.1340 H         1 NON         0.2100
     34 H11         3.9233   11.6642   27.2251 H         1 NON         0.2095
     35 H12         1.5586   15.5978   21.2952 H         1 NON         0.0935
     36 H13         0.0327   14.7220   23.8075 H         1 NON         0.0671
     37 H14         3.0229   14.6033   23.2245 H         1 NON         0.0648
     38 H15         1.0347   12.2469   23.3429 H         1 NON         0.0651
     39 H16         2.5459   13.4453   20.9759 H         1 NON         0.0647
     40 H17         2.2951   11.0901   20.6104 H         1 NON         0.0584
     41 H18         0.9342   11.8623   19.7281 H         1 NON         0.0584
     42 H19        -0.3561   16.7340   21.9775 H         1 NON         0.2126
     43 H20         0.6555   16.9682   23.5131 H         1 NON         0.2101
     44 H21         2.9038   13.3810   25.1732 H         1 NON         0.2100
     45 H22         0.2709   10.0448   20.9892 H         1 NON         0.2095
@<TRIPOS>BOND
     1    1    2 1  
     2    1   10 1  
     3   21    1 1  
     4    2    3 1  
     5    2    7 1  
     6    3    4 1  
     7    3    8 1  
     8    5    4 1  
     9    4    9 1  
    10    5    6 1  
    11   10    5 1  
    12    6   11 1  
    13   13   12 1  
    14   12   18 1  
    15   12   22 1  
    16   14   13 1  
    17   13   19 1  
    18   15   14 1  
    19   14   20 1  
    20   15   16 1  
    21   15   21 1  
    22   16   17 1  
    23   16   22 1  
    24   17   23 1  
    25    1   24 1  
    26    2   25 1  
    27    3   26 1  
    28    4   27 1  
    29    5   28 1  
    30    6   29 1  
    31    6   30 1  
    32    7   31 1  
    33    8   32 1  
    34    9   33 1  
    35   11   34 1  
    36   12   35 1  
    37   13   36 1  
    38   14   37 1  
    39   15   38 1  
    40   16   39 1  
    41   17   40 1  
    42   17   41 1  
    43   18   42 1  
    44   19   43 1  
    45   20   44 1  
    46   23   45 1  
@<TRIPOS>SUBSTRUCTURE
     1 NON         1

