### 
### Created by X-TOOL on Sun Sep  9 21:50:13 2018
### 

@<TRIPOS>MOLECULE
1z3v_ligand
   45    46     1     0     0
SMALL
GAST_HUCK


@<TRIPOS>ATOM
      1 C1          2.9850   10.7630   23.5020 C.3       1 NON         0.1884
      2 C2          4.1620    9.8390   23.3090 C.3       1 NON         0.1341
      3 C3          4.0790    8.6530   24.2540 C.3       1 NON         0.1141
      4 C4          3.9400    9.0860   25.7110 C.3       1 NON         0.1119
      5 C5          2.7600   10.0540   25.8470 C.3       1 NON         0.1130
      6 C6          2.5360   10.5430   27.2760 C.3       1 NON         0.0730
      7 O1          3.2220   12.0640   22.9290 O.3       1 NON        -0.3401
      8 O2          4.2250    9.4460   21.9390 O.3       1 NON        -0.3841
      9 O3          5.2520    7.8750   24.0550 O.3       1 NON        -0.3864
     10 O4          5.1590    9.6780   26.1360 O.3       1 NON        -0.3865
     11 O5          3.0490   11.1630   25.0140 O.3       1 NON        -0.3405
     12 O6          3.6490   11.3400   27.6390 O.3       1 NON        -0.3924
     13 C1'         0.6790   15.1230   21.8670 C.3       1 NON         0.1854
     14 C2'         1.1500   15.0860   23.1280 C.3       1 NON         0.1339
     15 C3'         1.9150   14.0440   23.5240 C.3       1 NON         0.1144
     16 C4'         2.0660   12.9460   22.7490 C.3       1 NON         0.1184
     17 C5'         1.5980   12.9320   21.5020 C.3       1 NON         0.1134
     18 C6'         1.5220   11.6540   20.6910 C.3       1 NON         0.0730
     19 O1'        -0.0950   15.9920   21.4360 O.3       1 NON        -0.3649
     20 O2'         1.2390   16.1490   23.7790 O.3       1 NON        -0.3841
     21 O3'         2.1730   13.9520   24.7440 O.3       1 NON        -0.3864
     22 O5'         0.5590   13.8640   21.1600 O.3       1 NON        -0.3407
     23 O6'         0.4600   10.8990   21.2640 O.3       1 NON        -0.3924
     24 H1          2.0377   10.3070   23.1785 H         1 NON         0.0938
     25 H2          5.0818   10.3931   23.5475 H         1 NON         0.0671
     26 H3          3.1980    8.0489   23.9916 H         1 NON         0.0648
     27 H4          3.7417    8.2010   26.3335 H         1 NON         0.0647
     28 H5          1.8435    9.5540   25.5007 H         1 NON         0.0647
     29 H6          2.4530    9.6834   27.9573 H         1 NON         0.0584
     30 H7          1.6145   11.1415   27.3268 H         1 NON         0.0584
     31 H8          4.2755   10.2202   21.3906 H         1 NON         0.2101
     32 H9          5.2109    7.0972   24.5990 H         1 NON         0.2100
     33 H10         5.0849    9.9327   27.0482 H         1 NON         0.2100
     34 H11         4.4409   10.8177   27.5887 H         1 NON         0.2095
     35 H12         1.5990   15.4985   21.3953 H         1 NON         0.0935
     36 H13         0.2158   14.7353   23.5909 H         1 NON         0.0671
     37 H14         2.8730   14.5023   23.2372 H         1 NON         0.0648
     38 H15         1.2970   12.3229   23.2291 H         1 NON         0.0651
     39 H16         2.4558   13.4084   21.0048 H         1 NON         0.0647
     40 H17         2.4688   11.0984   20.7604 H         1 NON         0.0584
     41 H18         1.3063   11.8808   19.6365 H         1 NON         0.0584
     42 H19         0.0922   16.1545   20.5189 H         1 NON         0.2126
     43 H20         0.6562   16.7986   23.4037 H         1 NON         0.2101
     44 H21         2.0242   14.7919   25.1622 H         1 NON         0.2100
     45 H22         0.3648   10.0799   20.7923 H         1 NON         0.2095
@<TRIPOS>BOND
     1    1    2 1  
     2    7    1 1  
     3    1   11 1  
     4    2    3 1  
     5    2    8 1  
     6    3    4 1  
     7    3    9 1  
     8    5    4 1  
     9    4   10 1  
    10    5    6 1  
    11   11    5 1  
    12    6   12 1  
    13   16    7 1  
    14   14   13 1  
    15   13   19 1  
    16   13   22 1  
    17   15   14 1  
    18   14   20 1  
    19   15   16 1  
    20   15   21 1  
    21   16   17 1  
    22   17   18 1  
    23   17   22 1  
    24   18   23 1  
    25    1   24 1  
    26    2   25 1  
    27    3   26 1  
    28    4   27 1  
    29    5   28 1  
    30    6   29 1  
    31    6   30 1  
    32    8   31 1  
    33    9   32 1  
    34   10   33 1  
    35   12   34 1  
    36   13   35 1  
    37   14   36 1  
    38   15   37 1  
    39   16   38 1  
    40   17   39 1  
    41   18   40 1  
    42   18   41 1  
    43   19   42 1  
    44   20   43 1  
    45   21   44 1  
    46   23   45 1  
@<TRIPOS>SUBSTRUCTURE
     1 NON         1

