### 
### Created by X-TOOL on Mon Sep 10 21:12:53 2018
### 

@<TRIPOS>MOLECULE
1z4u_ligand
   57    61     1     0     0
SMALL
GAST_HUCK


@<TRIPOS>ATOM
      1 CB2       -10.8320   55.7820   47.6710 C.ar      1 PH9        -0.0567
      2 CB3       -11.8860   56.1380   46.7730 C.ar      1 PH9        -0.0719
      3 CB4       -13.1200   56.6640   47.2650 C.ar      1 PH9        -0.0338
      4 CB6       -13.3020   56.8460   48.6600 C.ar      1 PH9         0.1121
      5 CB5       -12.2210   56.4890   49.5260 C.ar      1 PH9        -0.0338
      6 CB1       -11.0330   55.9750   49.0310 C.ar      1 PH9        -0.0719
      7 C2         -8.4160   54.7970   47.8060 C.2       1 PH9         0.1088
      8 C1         -9.5390   55.2420   47.1870 C.2       1 PH9        -0.0438
      9 N          -8.1930   54.7080   49.2050 N.am      1 PH9        -0.2210
     10 C          -7.9010   55.7510   50.0280 C.2       1 PH9         0.2316
     11 CO2        -7.2790   54.3120   46.9520 C.2       1 PH9         0.0969
     12 O          -7.7860   56.9390   49.6670 O.2       1 PH9        -0.3362
     13 OC1        -7.3810   54.5290   45.7200 O.co2     1 PH9        -0.5555
     14 OC2        -6.3080   53.7140   47.4700 O.co2     1 PH9        -0.5555
     15 OAB       -14.4880   57.3690   49.1480 O.3       1 PH9        -0.2589
     16 CA1       -14.7360   57.6270   50.4940 C.ar      1 PH9         0.1252
     17 CA2       -14.6250   58.9820   50.9660 C.ar      1 PH9         0.0450
     18 CA3       -14.8730   59.2790   52.3570 C.ar      1 PH9        -0.0602
     19 CA4       -15.2180   58.2270   53.2740 C.ar      1 PH9        -0.0695
     20 CA5       -15.3290   56.8760   52.8170 C.ar      1 PH9        -0.0669
     21 CA6       -15.0850   56.5850   51.4410 C.ar      1 PH9        -0.0257
     22 BRA2      -14.1610   60.3490   49.7070 Br        1 PH9        -0.0570
     23 CC4        -8.5850   55.4740   54.3960 C.3       1 PH9        -0.0477
     24 CC3        -7.2410   56.1230   53.9180 C.3       1 PH9        -0.0414
     25 CC5        -8.9010   54.2060   53.5190 C.3       1 PH9        -0.0414
     26 CC2        -7.4020   56.5610   52.4290 C.3       1 PH9        -0.0389
     27 CC6        -9.0480   54.6570   52.0300 C.3       1 PH9        -0.0389
     28 CC1        -7.7300   55.3330   51.5000 C.3       1 PH9         0.0570
     29 C10        -7.7220   53.1640   53.6250 C.3       1 PH9        -0.0477
     30 CC8        -6.3920   53.8240   53.1410 C.3       1 PH9        -0.0414
     31 CC9        -6.0800   55.0760   54.0270 C.3       1 PH9        -0.0477
     32 CC7        -6.5710   54.2770   51.6570 C.3       1 PH9        -0.0389
     33 H1        -11.7473   56.0073   45.7059 H         1 PH9         0.0534
     34 H2        -13.9145   56.9231   46.5746 H         1 PH9         0.0543
     35 H3        -12.3338   56.6238   50.5957 H         1 PH9         0.0543
     36 H4        -10.2401   55.7170   49.7237 H         1 PH9         0.0534
     37 H5         -9.4768   55.1915   46.1009 H         1 PH9         0.0329
     38 H6         -8.2559   53.8009   49.6212 H         1 PH9         0.2401
     39 H7        -14.7987   60.3006   52.7118 H         1 PH9         0.0617
     40 H8        -15.3951   58.4589   54.3180 H         1 PH9         0.0535
     41 H9        -15.5950   56.0833   53.5069 H         1 PH9         0.0614
     42 H10       -15.1624   55.5605   51.0953 H         1 PH9         0.0559
     43 H11        -9.4013   56.2038   54.2915 H         1 PH9         0.0270
     44 H12        -8.4926   55.1756   55.4507 H         1 PH9         0.0270
     45 H13        -7.0084   56.9986   54.5418 H         1 PH9         0.0299
     46 H14        -9.8363   53.7408   53.8638 H         1 PH9         0.0299
     47 H15        -6.4647   57.0259   52.0896 H         1 PH9         0.0254
     48 H16        -8.2208   57.2921   52.3577 H         1 PH9         0.0254
     49 H17        -9.8749   55.3785   51.9549 H         1 PH9         0.0254
     50 H18        -9.2723   53.7764   51.4102 H         1 PH9         0.0254
     51 H19        -7.9476   52.2911   52.9948 H         1 PH9         0.0270
     52 H20        -7.6111   52.8423   54.6710 H         1 PH9         0.0270
     53 H21        -5.5667   53.1006   53.2152 H         1 PH9         0.0299
     54 H22        -5.9729   54.7609   55.0754 H         1 PH9         0.0270
     55 H23        -5.1419   55.5376   53.6852 H         1 PH9         0.0270
     56 H24        -5.6303   54.7269   51.3068 H         1 PH9         0.0254
     57 H25        -6.8072   53.3958   51.0424 H         1 PH9         0.0254
@<TRIPOS>BOND
     1    1    2 ar 
     2    1    6 ar 
     3    8    1 1  
     4    2    3 ar 
     5    3    4 ar 
     6    5    4 ar 
     7    4   15 1  
     8    6    5 ar 
     9    7    8 2  
    10    9    7 1  
    11    7   11 1  
    12   10    9 am 
    13   10   12 2  
    14   28   10 1  
    15   11   13 ar 
    16   11   14 ar 
    17   15   16 1  
    18   16   17 ar 
    19   16   21 ar 
    20   17   18 ar 
    21   17   22 1  
    22   18   19 ar 
    23   20   19 ar 
    24   21   20 ar 
    25   24   23 1  
    26   23   25 1  
    27   26   24 1  
    28   24   31 1  
    29   25   27 1  
    30   25   29 1  
    31   26   28 1  
    32   27   28 1  
    33   28   32 1  
    34   29   30 1  
    35   30   31 1  
    36   30   32 1  
    37    2   33 1  
    38    3   34 1  
    39    5   35 1  
    40    6   36 1  
    41    8   37 1  
    42    9   38 1  
    43   18   39 1  
    44   19   40 1  
    45   20   41 1  
    46   21   42 1  
    47   23   43 1  
    48   23   44 1  
    49   24   45 1  
    50   25   46 1  
    51   26   47 1  
    52   26   48 1  
    53   27   49 1  
    54   27   50 1  
    55   29   51 1  
    56   29   52 1  
    57   30   53 1  
    58   31   54 1  
    59   31   55 1  
    60   32   56 1  
    61   32   57 1  
@<TRIPOS>SUBSTRUCTURE
     1 PH9         1

