### 
### Created by X-TOOL on Mon Sep 10 21:12:53 2018
### 

@<TRIPOS>MOLECULE
1z5m_ligand
   66    68     1     0     0
SMALL
GAST_HUCK


@<TRIPOS>ATOM
      1 C1         -8.7460   43.4960   43.4960 C.ar      1 LI8         0.0668
      2 C2         -7.3900   43.5560   43.9640 C.ar      1 LI8         0.1235
      3 N3         -6.7700   42.3830   44.2310 N.ar      1 LI8        -0.2354
      4 C4         -7.3610   41.1770   44.0690 C.ar      1 LI8         0.1968
      5 N5         -8.6250   41.1340   43.6130 N.ar      1 LI8        -0.2659
      6 C6         -9.3230   42.2380   43.3290 C.ar      1 LI8         0.0101
      7 BR7        -9.8060   44.9890   43.1270 Br        1 LI8        -0.0552
      8 N8         -6.7680   40.0080   44.3260 N.pl3     1 LI8        -0.2465
      9 C10        -5.5720   39.7600   44.8740 C.ar      1 LI8         0.0518
     10 C11        -4.4620   40.6670   44.8930 C.ar      1 LI8        -0.0194
     11 C12        -3.2410   40.2990   45.5070 C.ar      1 LI8         0.0567
     12 C13        -3.1410   39.0030   46.1000 C.ar      1 LI8        -0.0528
     13 C14        -4.2250   38.1020   46.0860 C.ar      1 LI8        -0.0845
     14 C15        -5.4340   38.4910   45.4780 C.ar      1 LI8        -0.0534
     15 N16        -2.2360   41.2050   45.5260 N.am      1 LI8        -0.2220
     16 C18        -0.9940   41.0960   45.0570 C.2       1 LI8         0.2895
     17 O19        -0.6370   40.0570   44.4640 O.2       1 LI8        -0.3903
     18 N20        -0.0910   42.0830   45.2450 N.am      1 LI8        -0.2542
     19 C21        -0.3450   43.3050   45.9240 C.3       1 LI8         0.0348
     20 C22         0.9980   43.6460   46.6200 C.3       1 LI8        -0.0309
     21 C23         2.0170   42.6180   46.0440 C.3       1 LI8        -0.0309
     22 C24         1.2750   41.9940   44.8530 C.3       1 LI8         0.0348
     23 N25        -6.7370   44.7340   44.1560 N.pl3     1 LI8        -0.3019
     24 C27        -5.4410   44.8800   44.7410 C.3       1 LI8         0.0316
     25 C28        -4.3080   44.6490   43.7190 C.3       1 LI8        -0.0120
     26 N29        -4.6850   46.9010   42.7280 N.am      1 LI8        -0.2866
     27 C31        -3.8420   47.7490   43.3860 C.2       1 LI8         0.2071
     28 O32        -2.7280   47.2800   43.8010 O.2       1 LI8        -0.3470
     29 C33        -4.4230   45.5140   42.4440 C.3       1 LI8         0.0327
     30 C34        -4.1590   49.2330   43.6380 C.3       1 LI8         0.1247
     31 C35        -2.8220   50.0500   43.6160 C.3       1 LI8        -0.0458
     32 C36        -5.0880   49.8530   42.5270 C.3       1 LI8        -0.0458
     33 C37        -4.7640   49.4030   44.9870 C.2       1 LI8         0.2047
     34 O38        -5.8370   50.0190   45.1910 O.2       1 LI8        -0.3472
     35 N39        -4.1800   48.9110   46.0750 N.am      1 LI8        -0.3006
     36 H1        -10.3415   42.1548   42.9675 H         1 LI8         0.0878
     37 H2         -7.3117   39.1735   44.0636 H         1 LI8         0.2182
     38 H3         -4.5587   41.6437   44.4329 H         1 LI8         0.0412
     39 H4         -2.2110   38.7060   46.5711 H         1 LI8         0.0410
     40 H5         -4.1290   37.1214   46.5379 H         1 LI8         0.0550
     41 H6         -6.2731   37.8047   45.4735 H         1 LI8         0.0413
     42 H7         -2.4574   42.0817   45.9532 H         1 LI8         0.2252
     43 H8         -1.1469   43.1785   46.6663 H         1 LI8         0.0520
     44 H9         -0.6258   44.0949   45.2119 H         1 LI8         0.0520
     45 H10         0.9088   43.5336   47.7106 H         1 LI8         0.0285
     46 H11         1.3080   44.6741   46.3814 H         1 LI8         0.0285
     47 H12         2.2680   41.8530   46.7935 H         1 LI8         0.0285
     48 H13         2.9367   43.1219   45.7121 H         1 LI8         0.0285
     49 H14         1.4594   42.5633   43.9300 H         1 LI8         0.0520
     50 H15         1.5763   40.9466   44.7042 H         1 LI8         0.0520
     51 H16        -7.2173   45.5937   43.8542 H         1 LI8         0.1854
     52 H17        -5.3364   44.1490   45.5563 H         1 LI8         0.0525
     53 H18        -5.3488   45.8981   45.1472 H         1 LI8         0.0525
     54 H19        -4.3223   43.5903   43.4207 H         1 LI8         0.0305
     55 H20        -3.3497   44.8794   44.2075 H         1 LI8         0.0305
     56 H21        -5.5588   47.2747   42.4167 H         1 LI8         0.1855
     57 H22        -5.2443   45.1213   41.8266 H         1 LI8         0.0522
     58 H23        -3.4780   45.4429   41.8855 H         1 LI8         0.0522
     59 H24        -2.3455   49.9469   42.6299 H         1 LI8         0.0210
     60 H25        -2.1445   49.6655   44.3926 H         1 LI8         0.0210
     61 H26        -3.0374   51.1111   43.8099 H         1 LI8         0.0210
     62 H27        -6.0443   49.3099   42.5036 H         1 LI8         0.0210
     63 H28        -4.5946   49.7689   41.5475 H         1 LI8         0.0210
     64 H29        -5.2739   50.9131   42.7541 H         1 LI8         0.0210
     65 H30        -4.6051   49.0375   46.9713 H         1 LI8         0.1818
     66 H31        -3.3155   48.4143   45.9973 H         1 LI8         0.1818
@<TRIPOS>BOND
     1    2    1 ar 
     2    1    6 ar 
     3    1    7 1  
     4    2    3 ar 
     5   23    2 1  
     6    3    4 ar 
     7    4    5 ar 
     8    4    8 1  
     9    6    5 ar 
    10    8    9 1  
    11    9   10 ar 
    12    9   14 ar 
    13   10   11 ar 
    14   11   12 ar 
    15   11   15 1  
    16   13   12 ar 
    17   14   13 ar 
    18   15   16 am 
    19   16   17 2  
    20   16   18 am 
    21   18   19 1  
    22   18   22 1  
    23   19   20 1  
    24   21   20 1  
    25   22   21 1  
    26   24   23 1  
    27   25   24 1  
    28   29   25 1  
    29   26   27 am 
    30   26   29 1  
    31   27   28 2  
    32   27   30 1  
    33   30   31 1  
    34   30   32 1  
    35   30   33 1  
    36   33   34 2  
    37   33   35 am 
    38    6   36 1  
    39    8   37 1  
    40   10   38 1  
    41   12   39 1  
    42   13   40 1  
    43   14   41 1  
    44   15   42 1  
    45   19   43 1  
    46   19   44 1  
    47   20   45 1  
    48   20   46 1  
    49   21   47 1  
    50   21   48 1  
    51   22   49 1  
    52   22   50 1  
    53   23   51 1  
    54   24   52 1  
    55   24   53 1  
    56   25   54 1  
    57   25   55 1  
    58   26   56 1  
    59   29   57 1  
    60   29   58 1  
    61   31   59 1  
    62   31   60 1  
    63   31   61 1  
    64   32   62 1  
    65   32   63 1  
    66   32   64 1  
    67   35   65 1  
    68   35   66 1  
@<TRIPOS>SUBSTRUCTURE
     1 LI8         1

