### 
### Created by X-TOOL on Mon Sep 10 21:12:54 2018
### 

@<TRIPOS>MOLECULE
1z6e_ligand
   59    63     1     0     0
SMALL
GAST_HUCK


@<TRIPOS>ATOM
      1 F           2.6460   27.9550   53.1860 F         1 IK8        -0.2205
      2 F1          2.6820   26.4560   54.6720 F         1 IK8        -0.2205
      3 F2          3.5120   26.1060   52.7180 F         1 IK8        -0.2205
      4 OT1        12.2170   27.6850   52.4430 O.3       1 IK8        -0.1911
      5 O1          8.2020   29.3600   56.3580 O.2       1 IK8        -0.3722
      6 N          12.1390   28.5390   51.4060 N.2       1 IK8        -0.1479
      7 N1         10.3140   29.9370   50.4830 N.pl3     1 IK8        -0.3306
      8 N2          6.8810   27.7950   54.3520 N.pl3     1 IK8        -0.1143
      9 N3          5.8980   27.1470   53.6570 N.2       1 IK8        -0.1332
     10 N4          6.2450   30.3470   56.9360 N.am      1 IK8        -0.2339
     11 C          11.0340   27.5590   53.0420 C.ar      1 IK8         0.1484
     12 C1         10.0800   28.4000   52.3350 C.ar      1 IK8         0.0490
     13 C2         10.8570   28.9980   51.3150 C.2       1 IK8         0.1245
     14 C3         10.5740   26.7930   54.2410 C.ar      1 IK8        -0.0228
     15 C4          9.1700   26.8740   54.7090 C.ar      1 IK8        -0.0239
     16 C5          8.2100   27.7260   53.9540 C.ar      1 IK8         0.1240
     17 C6          8.6760   28.5020   52.7610 C.ar      1 IK8        -0.0157
     18 C7          4.7110   27.4850   54.1830 C.2       1 IK8         0.1253
     19 C8          4.9120   28.3780   55.2720 C.2       1 IK8         0.0006
     20 C9          6.3130   28.5580   55.3520 C.2       1 IK8         0.1998
     21 C10         3.3450   26.9950   53.6810 C.3       1 IK8         0.3850
     22 C13         6.9760   29.4340   56.2410 C.2       1 IK8         0.2640
     23 C14         6.7990   31.3390   57.7130 C.ar      1 IK8         0.0938
     24 C15         7.5870   31.0050   58.8890 C.ar      1 IK8         0.1486
     25 C16         8.1980   31.9800   59.7480 C.ar      1 IK8        -0.0063
     26 C17         8.0100   33.3790   59.4090 C.ar      1 IK8         0.0815
     27 C18         7.2340   33.7410   58.2070 C.ar      1 IK8        -0.0439
     28 C19         6.6110   32.7370   57.3450 C.ar      1 IK8        -0.0458
     29 N5          8.4670   34.3420   60.3390 N.pl3     1 IK8        -0.2126
     30 C21         9.7120   34.9040   60.3640 C.2       1 IK8         0.0398
     31 C22         9.7590   35.8160   61.4250 C.2       1 IK8        -0.0345
     32 N6          8.5370   35.8010   62.0450 N.2       1 IK8        -0.3326
     33 C25         7.7650   34.8940   61.3830 C.2       1 IK8         0.1722
     34 F3          7.7730   29.7180   59.1680 F         1 IK8        -0.1950
     35 C11         6.3060   34.5810   61.7770 C.3       1 IK8         0.0454
     36 N7          6.1390   34.1820   63.2100 N.4       1 IK8         0.2478
     37 C20         6.5330   35.1040   64.3010 C.3       1 IK8        -0.0415
     38 C23         6.3330   32.7740   63.5730 C.3       1 IK8        -0.0415
     39 H1          9.3121   30.1664   50.5496 H         1 IK8         0.1701
     40 H2         10.9068   30.4151   49.7895 H         1 IK8         0.1701
     41 H3          5.2480   30.2944   56.8791 H         1 IK8         0.2222
     42 H4         11.2792   26.1680   54.7769 H         1 IK8         0.0572
     43 H5          8.8478   26.3229   55.5851 H         1 IK8         0.0597
     44 H6          7.9841   29.1338   52.2158 H         1 IK8         0.0604
     45 H7          4.1505   28.8270   55.9079 H         1 IK8         0.0555
     46 H8          8.7767   31.6832   60.6152 H         1 IK8         0.0532
     47 H9          7.1217   34.7890   57.9538 H         1 IK8         0.0514
     48 H10         6.0351   33.0199   56.4713 H         1 IK8         0.0477
     49 H11        10.5271   34.6810   59.6771 H         1 IK8         0.0801
     50 H12        10.6142   36.4282   61.7073 H         1 IK8         0.0413
     51 H13         5.9448   33.7575   61.1435 H         1 IK8         0.1053
     52 H14         5.6972   35.4787   61.5939 H         1 IK8         0.1053
     53 H15         5.1355   34.2512   63.2749 H         1 IK8         0.2047
     54 H16         6.3328   34.6289   65.2727 H         1 IK8         0.0778
     55 H17         5.9528   36.0351   64.2217 H         1 IK8         0.0778
     56 H18         7.6059   35.3323   64.2186 H         1 IK8         0.0778
     57 H19         6.0270   32.1333   62.7328 H         1 IK8         0.0778
     58 H20         5.7230   32.5358   64.4568 H         1 IK8         0.0778
     59 H21         7.3944   32.5971   63.8014 H         1 IK8         0.0778
@<TRIPOS>BOND
     1   21    1 1  
     2   21    2 1  
     3   21    3 1  
     4    6    4 1  
     5   11    4 1  
     6   22    5 2  
     7   13    6 2  
     8   13    7 1  
     9    8    9 1  
    10    8   16 1  
    11   20    8 1  
    12   18    9 2  
    13   22   10 am 
    14   10   23 1  
    15   12   11 ar 
    16   14   11 ar 
    17   12   13 1  
    18   17   12 ar 
    19   15   14 ar 
    20   16   15 ar 
    21   16   17 ar 
    22   19   18 1  
    23   18   21 1  
    24   20   19 2  
    25   20   22 1  
    26   23   24 ar 
    27   23   28 ar 
    28   24   25 ar 
    29   24   34 1  
    30   25   26 ar 
    31   26   27 ar 
    32   26   29 1  
    33   27   28 ar 
    34   29   30 1  
    35   29   33 1  
    36   30   31 2  
    37   31   32 1  
    38   32   33 2  
    39   33   35 1  
    40   35   36 1  
    41   36   37 1  
    42   36   38 1  
    43    7   39 1  
    44    7   40 1  
    45   10   41 1  
    46   14   42 1  
    47   15   43 1  
    48   17   44 1  
    49   19   45 1  
    50   25   46 1  
    51   27   47 1  
    52   28   48 1  
    53   30   49 1  
    54   31   50 1  
    55   35   51 1  
    56   35   52 1  
    57   36   53 1  
    58   37   54 1  
    59   37   55 1  
    60   37   56 1  
    61   38   57 1  
    62   38   58 1  
    63   38   59 1  
@<TRIPOS>SUBSTRUCTURE
     1 IK8         1

