### 
### Created by X-TOOL on Mon Sep 10 21:12:53 2018
### 

@<TRIPOS>MOLECULE
1z6j_ligand
   89    92     1     0     0
SMALL
GAST_HUCK


@<TRIPOS>ATOM
      1 C3         32.4380    4.3760   10.7720 C.ar      1 PY3         0.0863
      2 C4         33.8430    4.5090   10.8910 C.ar      1 PY3        -0.0140
      3 C5         34.6760    3.5310   10.3210 C.ar      1 PY3        -0.0065
      4 C1         32.8080    2.3050    9.5340 C.ar      1 PY3        -0.0065
      5 C2         31.9290    3.2530   10.0800 C.ar      1 PY3        -0.0140
      6 N6         34.1400    2.4700    9.6690 N.ar      1 PY3        -0.3198
      7 N7         31.6400    5.3710   11.3620 N.am      1 PY3        -0.2253
      8 C8         30.3140    5.4530   11.3390 C.2       1 PY3         0.2316
      9 C9         29.6000    6.5190   12.0610 C.ar      1 PY3         0.0602
     10 O10        29.5790    4.6800   10.7620 O.2       1 PY3        -0.3748
     11 C11        28.8870    7.5430   11.4180 C.ar      1 PY3         0.0001
     12 C12        28.2170    8.5040   12.2460 C.ar      1 PY3        -0.0524
     13 C13        28.2700    8.4300   13.6710 C.ar      1 PY3        -0.0589
     14 C14        29.0050    7.3890   14.2980 C.ar      1 PY3         0.0245
     15 C15        29.6680    6.4400   13.4860 C.ar      1 PY3        -0.0426
     16 C16        29.0720    7.3190   15.7660 C.cat     1 PY3         0.2329
     17 N17        28.5830    8.3300   16.5320 N.pl3     1 PY3        -0.2728
     18 N18        29.5990    6.2850   16.3620 N.pl3     1 PY3        -0.2728
     19 C19        28.7430    7.7550    9.9410 C.3       1 PY3         0.0681
     20 N20        29.7600    8.7760    9.5160 N.am      1 PY3        -0.2723
     21 C21        30.9530    8.4320    9.0230 C.2       1 PY3         0.2086
     22 C22        32.0070    9.5110    8.9880 C.3       1 PY3         0.1497
     23 N23        33.4140    9.0560    8.9670 N.am      1 PY3        -0.1918
     24 O24        31.1910    7.3040    8.6370 O.2       1 PY3        -0.3939
     25 C25        33.8650    8.3960   10.1290 C.2       1 PY3         0.2742
     26 C26        35.2890    8.0000   10.2390 C.2       1 PY3         0.1921
     27 N27        36.0860    8.2790    9.2340 N.2       1 PY3        -0.3034
     28 C28        35.6480    8.9110    8.0670 C.2       1 PY3        -0.0002
     29 C29        34.3530    9.2840    7.9240 C.2       1 PY3         0.0915
     30 C30        33.9160    9.8710    6.6410 C.ar      1 PY3         0.0026
     31 N31        35.7670    7.3740   11.3670 N.pl3     1 PY3        -0.2916
     32 C32        37.1910    7.1700   11.6760 C.3       1 PY3         0.0357
     33 C33        37.3540    7.1500   13.2260 C.3       1 PY3        -0.0419
     34 C34        37.6510    5.8470   11.0200 C.3       1 PY3        -0.0419
     35 C35        34.4330   11.1300    6.2080 C.ar      1 PY3        -0.0319
     36 C36        33.9760   11.6970    4.9830 C.ar      1 PY3         0.0399
     37 C37        33.0060   11.0090    4.2070 C.ar      1 PY3        -0.0256
     38 C38        32.4820    9.7740    4.6120 C.ar      1 PY3         0.0387
     39 C39        32.9380    9.2000    5.8370 C.ar      1 PY3        -0.0452
     40 N40        34.4580   12.9310    4.5440 N.pl3     1 PY3        -0.3366
     41 C41        31.4540    9.1120    3.7900 C.2       1 PY3         0.2022
     42 N42        30.5540    9.8430    3.0600 N.am      1 PY3        -0.2835
     43 C43        29.4670    9.3210    2.1800 C.3       1 PY3         0.0385
     44 C44        28.0840    9.8380    2.6450 C.3       1 PY3        -0.0330
     45 C45        27.0990    8.7580    3.1840 C.3       1 PY3        -0.0632
     46 O46        31.4220    7.8970    3.7810 O.2       1 PY3        -0.3846
     47 C47        29.7800    9.7400    0.7270 C.3       1 PY3        -0.0420
     48 O48        33.1330    8.1460   11.0960 O.2       1 PY3        -0.3891
     49 H1         34.2710    5.3555   11.4157 H         1 PY3         0.0596
     50 H2         35.7528    3.6255   10.4031 H         1 PY3         0.0771
     51 H3         32.4178    1.4428    9.0054 H         1 PY3         0.0771
     52 H4         30.8582    3.1241    9.9710 H         1 PY3         0.0596
     53 H5         32.1227    6.0964   11.8526 H         1 PY3         0.2301
     54 H6         27.6569    9.3058   11.7785 H         1 PY3         0.0569
     55 H7         27.7504    9.1667   14.2729 H         1 PY3         0.0635
     56 H8         30.2354    5.6419   13.9509 H         1 PY3         0.0651
     57 H9         28.6355    8.2698   17.5589 H         1 PY3         0.3180
     58 H10        28.1600    9.1562   16.0855 H         1 PY3         0.3180
     59 H11        29.9765    5.5059   15.8039 H         1 PY3         0.3180
     60 H12        29.6376    6.2478   17.3906 H         1 PY3         0.3180
     61 H13        27.7305    8.1198    9.7134 H         1 PY3         0.0698
     62 H14        28.9199    6.8085    9.4092 H         1 PY3         0.0698
     63 H15        29.5361    9.7465    9.6052 H         1 PY3         0.1880
     64 H16        31.8720   10.1397    9.8805 H         1 PY3         0.0858
     65 H17        31.8373   10.1153    8.0847 H         1 PY3         0.0858
     66 H18        36.3559    9.1061    7.2628 H         1 PY3         0.0495
     67 H19        35.0767    7.0220   12.0456 H         1 PY3         0.1864
     68 H20        37.7846    7.9991   11.2634 H         1 PY3         0.0556
     69 H21        38.4131    6.9983   13.4813 H         1 PY3         0.0252
     70 H22        36.7542    6.3298   13.6472 H         1 PY3         0.0252
     71 H23        37.0098    8.1078   13.6433 H         1 PY3         0.0252
     72 H24        38.7153    5.6786   11.2414 H         1 PY3         0.0252
     73 H25        37.5083    5.9086    9.9310 H         1 PY3         0.0252
     74 H26        37.0567    5.0128   11.4211 H         1 PY3         0.0252
     75 H27        35.1695   11.6518    6.8083 H         1 PY3         0.0543
     76 H28        32.6623   11.4500    3.2783 H         1 PY3         0.0561
     77 H29        32.5399    8.2458    6.1626 H         1 PY3         0.0567
     78 H30        35.1617   13.4367    5.1008 H         1 PY3         0.1716
     79 H31        34.1101   13.3360    3.6632 H         1 PY3         0.1716
     80 H32        30.6343   10.8377    3.1239 H         1 PY3         0.1848
     81 H33        29.4593    8.2225    2.2364 H         1 PY3         0.0553
     82 H34        27.6042   10.3339    1.7883 H         1 PY3         0.0285
     83 H35        28.2510   10.5719    3.4472 H         1 PY3         0.0285
     84 H36        26.1557    9.2386    3.4828 H         1 PY3         0.0230
     85 H37        27.5462    8.2555    4.0543 H         1 PY3         0.0230
     86 H38        26.8995    8.0175    2.3955 H         1 PY3         0.0230
     87 H39        28.9903    9.3653    0.0592 H         1 PY3         0.0252
     88 H40        30.7485    9.3159    0.4236 H         1 PY3         0.0252
     89 H41        29.8240   10.8373    0.6632 H         1 PY3         0.0252
@<TRIPOS>BOND
     1    1    2 ar 
     2    1    5 ar 
     3    1    7 1  
     4    2    3 ar 
     5    3    6 ar 
     6    5    4 ar 
     7    4    6 ar 
     8    7    8 am 
     9    8    9 1  
    10    8   10 2  
    11    9   11 ar 
    12    9   15 ar 
    13   11   12 ar 
    14   11   19 1  
    15   12   13 ar 
    16   13   14 ar 
    17   14   15 ar 
    18   14   16 1  
    19   16   17 ar 
    20   16   18 ar 
    21   19   20 1  
    22   20   21 am 
    23   21   22 1  
    24   21   24 2  
    25   22   23 1  
    26   23   25 am 
    27   23   29 1  
    28   25   26 1  
    29   25   48 2  
    30   26   27 2  
    31   26   31 1  
    32   27   28 1  
    33   28   29 2  
    34   29   30 1  
    35   30   35 ar 
    36   30   39 ar 
    37   31   32 1  
    38   32   33 1  
    39   32   34 1  
    40   35   36 ar 
    41   36   37 ar 
    42   36   40 1  
    43   37   38 ar 
    44   38   39 ar 
    45   38   41 1  
    46   41   42 am 
    47   41   46 2  
    48   42   43 1  
    49   43   44 1  
    50   43   47 1  
    51   44   45 1  
    52    2   49 1  
    53    3   50 1  
    54    4   51 1  
    55    5   52 1  
    56    7   53 1  
    57   12   54 1  
    58   13   55 1  
    59   15   56 1  
    60   17   57 1  
    61   17   58 1  
    62   18   59 1  
    63   18   60 1  
    64   19   61 1  
    65   19   62 1  
    66   20   63 1  
    67   22   64 1  
    68   22   65 1  
    69   28   66 1  
    70   31   67 1  
    71   32   68 1  
    72   33   69 1  
    73   33   70 1  
    74   33   71 1  
    75   34   72 1  
    76   34   73 1  
    77   34   74 1  
    78   35   75 1  
    79   37   76 1  
    80   39   77 1  
    81   40   78 1  
    82   40   79 1  
    83   42   80 1  
    84   43   81 1  
    85   44   82 1  
    86   44   83 1  
    87   45   84 1  
    88   45   85 1  
    89   45   86 1  
    90   47   87 1  
    91   47   88 1  
    92   47   89 1  
@<TRIPOS>SUBSTRUCTURE
     1 PY3         1

