### 
### Created by X-TOOL on Mon Sep 10 21:12:52 2018
### 

@<TRIPOS>MOLECULE
1z6p_ligand
   43    45     1     0     0
SMALL
GAST_HUCK


@<TRIPOS>ATOM
      1 C1         30.5040    0.0440   52.1840 C.ar      1 194        -0.0296
      2 C2         29.1630   -0.2510   52.1070 C.ar      1 194         0.0113
      3 C3         28.5540   -0.3870   50.8790 C.ar      1 194         0.2011
      4 C4         29.2610   -0.3620   49.7050 C.ar      1 194         0.0229
      5 C5         30.5910   -0.0270   49.7610 C.ar      1 194         0.0387
      6 C6         31.1940    0.2620   50.9960 C.ar      1 194         0.0346
      7 C10        32.5060    0.9780   51.1290 C.2       1 194         0.0720
      8 O1         33.4070    0.5470   51.7720 O.co2     1 194        -0.5573
      9 O2         32.5980    2.1990   50.5400 O.co2     1 194        -0.5573
     10 C20        31.2730    0.0530   48.4890 C.2       1 194         0.0683
     11 O5         32.1130   -0.9580   48.1130 O.co2     1 194        -0.5593
     12 O4         31.0290    0.9680   47.7960 O.co2     1 194        -0.5593
     13 O3         27.2090   -0.5640   50.7770 O.3       1 194        -0.1339
     14 C31        26.7290   -1.6170   51.5270 C.ar      1 194         0.3336
     15 C34        25.3550   -1.6180   51.7890 C.ar      1 194         0.3247
     16 C35        24.7690   -2.6700   52.5300 C.ar      1 194         0.0874
     17 C36        25.5900   -3.6370   53.1050 C.ar      1 194         0.0151
     18 C37        26.9630   -3.6200   52.8770 C.ar      1 194         0.0127
     19 C38        27.5110   -2.6520   52.0030 C.ar      1 194         0.0816
     20 N1         24.6550   -0.5170   51.2980 N.am      1 194        -0.1073
     21 C44        24.3410    0.5060   52.1230 C.2       1 194         0.3499
     22 O6         24.2880    0.2770   53.3100 O.2       1 194        -0.3013
     23 C51        24.0430    1.9050   51.6640 C.ar      1 194         0.0947
     24 C53        23.9140    2.9440   52.6100 C.ar      1 194        -0.0048
     25 C54        23.5450    4.2460   52.1680 C.ar      1 194         0.0900
     26 C55        23.2770    4.4870   50.8220 C.ar      1 194        -0.0239
     27 C56        23.4450    3.4810   49.9040 C.ar      1 194        -0.0483
     28 C57        23.8060    2.2220   50.3460 C.ar      1 194        -0.0335
     29 N2         23.6070    5.3760   53.0680 N.2       1 194        -0.2153
     30 O7         24.1480    5.2870   54.1090 O.2       1 194        -0.4886
     31 O8         23.2250    6.5490   52.6940 O.2       1 194        -0.4886
     32 H1         31.0082    0.1048   53.1417 H         1 194         0.0693
     33 H2         28.5839   -0.3768   53.0147 H         1 194         0.0741
     34 H3         28.7843   -0.5996   48.7609 H         1 194         0.0756
     35 H4         23.6929   -2.7233   52.6492 H         1 194         0.0949
     36 H5         25.1574   -4.4070   53.7335 H         1 194         0.0991
     37 H6         27.6070   -4.3425   53.3651 H         1 194         0.1159
     38 H7         28.5508   -2.7226   51.7049 H         1 194         0.0824
     39 H8         24.3853   -0.4843   50.3356 H         1 194         0.3762
     40 H9         24.0939    2.7529   53.6618 H         1 194         0.0745
     41 H10        22.9372    5.4652   50.5014 H         1 194         0.0724
     42 H11        23.2967    3.6709   48.8471 H         1 194         0.0644
     43 H12        23.9089    1.4348   49.6079 H         1 194         0.0712
@<TRIPOS>BOND
     1    1    2 ar 
     2    1    6 ar 
     3    2    3 ar 
     4    3    4 ar 
     5    3   13 1  
     6    4    5 ar 
     7    5    6 ar 
     8    5   10 1  
     9    6    7 1  
    10    7    8 ar 
    11    7    9 ar 
    12   10   11 ar 
    13   10   12 ar 
    14   13   14 1  
    15   14   15 ar 
    16   14   19 ar 
    17   15   16 ar 
    18   15   20 1  
    19   16   17 ar 
    20   17   18 ar 
    21   18   19 ar 
    22   20   21 am 
    23   21   22 2  
    24   21   23 1  
    25   23   24 ar 
    26   23   28 ar 
    27   24   25 ar 
    28   25   26 ar 
    29   25   29 1  
    30   26   27 ar 
    31   27   28 ar 
    32   29   30 2  
    33   29   31 2  
    34    1   32 1  
    35    2   33 1  
    36    4   34 1  
    37   16   35 1  
    38   17   36 1  
    39   18   37 1  
    40   19   38 1  
    41   20   39 1  
    42   24   40 1  
    43   26   41 1  
    44   27   42 1  
    45   28   43 1  
@<TRIPOS>SUBSTRUCTURE
     1 194         1

