### 
### Created by X-TOOL on Mon Sep 10 21:12:53 2018
### 

@<TRIPOS>MOLECULE
1z6q_ligand
   59    62     1     0     0
SMALL
GAST_HUCK


@<TRIPOS>ATOM
      1 C1         26.4030   -1.5600   51.6040 C.ar      1 195         0.4200
      2 C2         25.0460   -1.4850   51.8600 C.ar      1 195         0.4822
      3 C3         24.3930   -2.5320   52.5120 C.ar      1 195         0.3162
      4 C4         25.1100   -3.6530   52.9100 C.ar      1 195         0.3876
      5 C5         26.4880   -3.7210   52.6600 C.ar      1 195         0.1726
      6 C6         27.1320   -2.6720   52.0110 C.ar      1 195         0.1657
      7 O1         26.9950   -0.5350   50.8630 O.3       1 195        -0.1136
      8 C7         28.3820   -0.4630   50.9950 C.ar      1 195         0.2000
      9 C8         29.1700   -0.3910   49.8510 C.ar      1 195         0.0185
     10 C9         30.5350   -0.1290   49.9520 C.ar      1 195         0.0346
     11 C10        31.1120    0.0730   51.1790 C.ar      1 195         0.0304
     12 C11        30.3390   -0.0210   52.3320 C.ar      1 195        -0.0337
     13 C12        28.9720   -0.2910   52.2420 C.ar      1 195         0.0069
     14 C13        32.5190    0.4710   51.2540 C.2       1 195         0.0693
     15 O2         33.2880   -0.2650   52.0780 O.co2     1 195        -0.5584
     16 O3         32.9280    1.3920   50.6130 O.co2     1 195        -0.5584
     17 C14        31.3720   -0.1080   48.7550 C.2       1 195         0.0672
     18 O4         32.3090   -1.0890   48.6960 O.co2     1 195        -0.5595
     19 O5         31.2300    0.7260   47.9150 O.co2     1 195        -0.5595
     20 N1         24.3800   -0.3410   51.5410 N.am      1 195        -0.0549
     21 C15        24.7600    0.8010   52.1510 C.2       1 195         0.3990
     22 C16        24.1470    2.0490   51.6660 C.ar      1 195         0.1086
     23 O6         25.5840    0.7770   53.0570 O.2       1 195        -0.2681
     24 C17        24.0730    3.1300   52.5250 C.ar      1 195        -0.0036
     25 C18        23.5930    4.3480   52.0790 C.ar      1 195         0.0900
     26 C19        23.1780    4.4910   50.7690 C.ar      1 195        -0.0239
     27 C20        23.2390    3.4080   49.9020 C.ar      1 195        -0.0483
     28 C21        23.7260    2.1860   50.3490 C.ar      1 195        -0.0323
     29 N4         23.5550    5.4830   52.9930 N.2       1 195        -0.2153
     30 O7         23.0860    6.5250   52.6650 O.2       1 195        -0.4886
     31 O8         24.0880    5.2480   54.2110 O.2       1 195        -0.4886
     32 N2         24.4560   -4.6940   53.5380 N.am      1 195        -0.0861
     33 C22        25.0310   -5.9150   53.6170 C.2       1 195         0.3603
     34 O9         26.1160   -6.1480   53.0980 O.2       1 195        -0.2939
     35 C23        24.2500   -6.9360   54.3750 C.ar      1 195         0.0973
     36 C24        23.1810   -6.5570   55.1910 C.ar      1 195        -0.0046
     37 C25        22.4870   -7.5270   55.9350 C.ar      1 195         0.0900
     38 C26        22.8650   -8.8520   55.8590 C.ar      1 195        -0.0239
     39 C27        23.9220   -9.2300   55.0450 C.ar      1 195        -0.0484
     40 C28        24.6170   -8.2740   54.3030 C.ar      1 195        -0.0333
     41 N3         21.3680   -7.1460   56.8120 N.2       1 195        -0.2153
     42 O10        21.2680   -6.0410   57.2460 O.2       1 195        -0.4886
     43 O11        20.4870   -8.1430   57.0810 O.2       1 195        -0.4886
     44 H1         23.3285   -2.4705   52.7074 H         1 195         0.2696
     45 H2         27.0525   -4.5920   52.9727 H         1 195         0.1576
     46 H3         28.1985   -2.7215   51.8233 H         1 195         0.1414
     47 H4         28.7201   -0.5394   48.8760 H         1 195         0.0731
     48 H5         30.7996    0.1159   53.3037 H         1 195         0.0680
     49 H6         28.3725   -0.3663   53.1420 H         1 195         0.0716
     50 H7         23.6332   -0.3470   50.8760 H         1 195         0.4383
     51 H8         24.3934    3.0221   53.5549 H         1 195         0.0745
     52 H9         22.8055    5.4468   50.4186 H         1 195         0.0724
     53 H10        22.9065    3.5161   48.8759 H         1 195         0.0643
     54 H11        23.7774    1.3412   49.6717 H         1 195         0.0713
     55 H12        23.5514   -4.5440   53.9369 H         1 195         0.3882
     56 H13        22.8869   -5.5153   55.2503 H         1 195         0.0745
     57 H14        22.3341   -9.5995   56.4373 H         1 195         0.0724
     58 H15        24.2099  -10.2733   54.9847 H         1 195         0.0643
     59 H16        25.4437   -8.5756   53.6701 H         1 195         0.0712
@<TRIPOS>BOND
     1    1    2 ar 
     2    1    6 ar 
     3    1    7 1  
     4    2    3 ar 
     5    2   20 1  
     6    3    4 ar 
     7    4    5 ar 
     8    4   32 1  
     9    5    6 ar 
    10    7    8 1  
    11    8    9 ar 
    12    8   13 ar 
    13    9   10 ar 
    14   10   11 ar 
    15   10   17 1  
    16   11   12 ar 
    17   11   14 1  
    18   12   13 ar 
    19   14   15 ar 
    20   14   16 ar 
    21   17   18 ar 
    22   17   19 ar 
    23   20   21 am 
    24   21   22 1  
    25   21   23 2  
    26   22   24 ar 
    27   22   28 ar 
    28   24   25 ar 
    29   25   26 ar 
    30   25   29 1  
    31   26   27 ar 
    32   27   28 ar 
    33   29   30 2  
    34   29   31 2  
    35   32   33 am 
    36   33   34 2  
    37   33   35 1  
    38   35   36 ar 
    39   35   40 ar 
    40   36   37 ar 
    41   37   38 ar 
    42   37   41 1  
    43   38   39 ar 
    44   39   40 ar 
    45   41   42 2  
    46   41   43 2  
    47    3   44 1  
    48    5   45 1  
    49    6   46 1  
    50    9   47 1  
    51   12   48 1  
    52   13   49 1  
    53   20   50 1  
    54   24   51 1  
    55   26   52 1  
    56   27   53 1  
    57   28   54 1  
    58   32   55 1  
    59   36   56 1  
    60   38   57 1  
    61   39   58 1  
    62   40   59 1  
@<TRIPOS>SUBSTRUCTURE
     1 195         1

