### 
### Created by X-TOOL on Mon Sep 10 21:12:53 2018
### 

@<TRIPOS>MOLECULE
1z95_ligand
   43    44     1     0     0
SMALL
GAST_HUCK


@<TRIPOS>ATOM
      1 C16        29.1850    1.4670    9.0150 C.ar      1 198        -0.0388
      2 C17        28.7480    1.3070   10.3270 C.ar      1 198        -0.0264
      3 C18        29.5430    0.6260   11.2440 C.ar      1 198         0.1325
      4 F18        29.1270    0.4660   12.5160 F         1 198        -0.1834
      5 C19        30.7730    0.1070   10.8520 C.ar      1 198        -0.0264
      6 C20        31.2100    0.2690    9.5410 C.ar      1 198        -0.0388
      7 C15        30.4160    0.9480    8.6230 C.ar      1 198         0.0840
      8 S14        30.9610    1.1230    6.9710 S.o2      1 198        -0.0030
      9 O14        30.5010    2.4500    6.4430 O.2       1 198        -0.1699
     10 O15        32.4580    1.0530    6.9270 O.2       1 198        -0.1699
     11 C13        30.2570   -0.2330    5.9620 C.3       1 198         0.1063
     12 C11        29.6810    0.2030    4.6120 C.3       1 198         0.1678
     13 O11        30.6660    0.9590    3.9030 O.3       1 198        -0.3823
     14 C12        29.2760   -1.0210    3.7880 C.3       1 198        -0.0271
     15 C10        28.4490    1.0870    4.8230 C.2       1 198         0.2588
     16 O10        27.4440    0.6410    5.3760 O.2       1 198        -0.3300
     17 N9         28.6250    2.3570    4.4660 N.am      1 198        -0.2188
     18 C1         27.7060    3.3220    4.5180 C.ar      1 198         0.1074
     19 C2         26.3660    3.0880    4.8190 C.ar      1 198         0.0010
     20 C6         28.0950    4.6030    4.1420 C.ar      1 198        -0.0005
     21 C5         27.1500    5.6220    4.0830 C.ar      1 198        -0.0119
     22 C4         25.8150    5.3730    4.3880 C.ar      1 198         0.1068
     23 C8         24.9330    6.4990    4.3240 C.1       1 198         0.1050
     24 N8         24.2430    7.4020    4.2630 N.1       1 198        -0.3259
     25 C3         25.3950    4.0900    4.7550 C.ar      1 198         0.0666
     26 C7         23.9310    3.7310    5.0750 C.3       1 198         0.3787
     27 F7B        23.7140    3.8720    6.3790 F         1 198        -0.2186
     28 F7C        23.0300    4.4730    4.4370 F         1 198        -0.2186
     29 F7A        23.6400    2.4740    4.7490 F         1 198        -0.2186
     30 H1         28.5668    1.9957    8.2985 H         1 198         0.0626
     31 H2         27.7904    1.7120   10.6337 H         1 198         0.0604
     32 H3         31.3906   -0.4234   11.5678 H         1 198         0.0604
     33 H4         32.1688   -0.1338    9.2353 H         1 198         0.0626
     34 H5         29.4507   -0.7071    6.5409 H         1 198         0.0518
     35 H6         31.0535   -0.9677    5.7728 H         1 198         0.0518
     36 H7         31.4362    0.4209    3.7629 H         1 198         0.2079
     37 H8         28.8645   -0.6929    2.8221 H         1 198         0.0244
     38 H9         28.5140   -1.5955    4.3350 H         1 198         0.0244
     39 H10        30.1583   -1.6545    3.6144 H         1 198         0.0244
     40 H11        29.5308    2.6113    4.1272 H         1 198         0.2319
     41 H12        26.0652    2.0893    5.1144 H         1 198         0.0781
     42 H13        29.1308    4.8067    3.8958 H         1 198         0.0767
     43 H14        27.4568    6.6214    3.7962 H         1 198         0.0766
@<TRIPOS>BOND
     1    1    2 ar 
     2    1    7 ar 
     3    2    3 ar 
     4    3    4 1  
     5    3    5 ar 
     6    5    6 ar 
     7    6    7 ar 
     8    7    8 1  
     9    8    9 2  
    10    8   10 2  
    11    8   11 1  
    12   11   12 1  
    13   12   13 1  
    14   12   14 1  
    15   12   15 1  
    16   15   16 2  
    17   15   17 am 
    18   17   18 1  
    19   18   19 ar 
    20   18   20 ar 
    21   19   25 ar 
    22   20   21 ar 
    23   21   22 ar 
    24   22   23 1  
    25   22   25 ar 
    26   23   24 3  
    27   25   26 1  
    28   26   27 1  
    29   26   28 1  
    30   26   29 1  
    31    1   30 1  
    32    2   31 1  
    33    5   32 1  
    34    6   33 1  
    35   11   34 1  
    36   11   35 1  
    37   13   36 1  
    38   14   37 1  
    39   14   38 1  
    40   14   39 1  
    41   17   40 1  
    42   19   41 1  
    43   20   42 1  
    44   21   43 1  
@<TRIPOS>SUBSTRUCTURE
     1 198         1

