### 
### Created by X-TOOL on Mon Sep 10 21:12:53 2018
### 

@<TRIPOS>MOLECULE
1z9h_ligand
   40    42     1     0     0
SMALL
GAST_HUCK


@<TRIPOS>ATOM
      1 C         -21.0830   54.3620   11.9650 C.ar      1 IMN         0.0787
      2 C1        -20.0730   53.8420   12.9560 C.ar      1 IMN        -0.0393
      3 C2        -19.2180   54.7880   13.6700 C.ar      1 IMN        -0.0562
      4 C3        -19.3010   56.1930   13.4580 C.ar      1 IMN         0.0670
      5 C4        -20.2600   56.6990   12.5240 C.ar      1 IMN        -0.0504
      6 C5        -21.1170   55.8210   11.8010 C.ar      1 IMN        -0.0495
      7 C6        -18.3930   58.4500   14.0940 C.3       1 IMN         0.0564
      8 C7        -20.1790   52.3460   12.9970 C.2       1 IMN        -0.0396
      9 C8        -21.2590   51.9990   12.0100 C.2       1 IMN         0.0648
     10 C9        -22.8120   53.3270   10.4300 C.2       1 IMN         0.2697
     11 C10       -23.0870   54.5000    9.4140 C.ar      1 IMN         0.0658
     12 C11       -24.3180   55.2360    9.6580 C.ar      1 IMN        -0.0401
     13 C12       -24.7170   56.3590    8.8300 C.ar      1 IMN        -0.0421
     14 C13       -23.8800   56.7630    7.7500 C.ar      1 IMN         0.0451
     15 C14       -22.6740   56.0640    7.4820 C.ar      1 IMN        -0.0421
     16 C15       -22.2660   54.9400    8.3040 C.ar      1 IMN        -0.0401
     17 C16       -21.7080   50.5690   11.7180 C.3       1 IMN        -0.0090
     18 C17       -19.2720   51.5520   13.9330 C.3       1 IMN         0.0085
     19 C18       -19.2530   51.7160   15.4600 C.2       1 IMN         0.0372
     20 N         -21.7240   53.2230   11.4620 N.am      1 IMN        -0.1828
     21 O         -18.4500   57.0040   14.1740 O.3       1 IMN        -0.3319
     22 O1        -23.6280   52.4090   10.3280 O.2       1 IMN        -0.3512
     23 O2        -20.2210   51.7340   16.2070 O.co2     1 IMN        -0.5679
     24 O3        -18.0540   51.8800   16.0350 O.co2     1 IMN        -0.5679
     25 CL        -24.2890   58.1010    6.7910 Cl        1 IMN        -0.0665
     26 H1        -18.4971   54.4072   14.3844 H         1 IMN         0.0397
     27 H2        -20.3353   57.7685   12.3642 H         1 IMN         0.0444
     28 H3        -21.8247   56.2479   11.0996 H         1 IMN         0.0515
     29 H4        -17.6184   58.8248   14.7792 H         1 IMN         0.0572
     30 H5        -19.3686   58.8717   14.3776 H         1 IMN         0.0572
     31 H6        -18.1487   58.7510   13.0646 H         1 IMN         0.0572
     32 H7        -24.9556   54.9369   10.4821 H         1 IMN         0.0670
     33 H8        -25.6430   56.8855    9.0312 H         1 IMN         0.0634
     34 H9        -22.0494   56.3741    6.6521 H         1 IMN         0.0634
     35 H10       -21.3378   54.4244    8.0855 H         1 IMN         0.0670
     36 H11       -21.1226   49.8684   12.3316 H         1 IMN         0.0401
     37 H12       -21.5487   50.3449   10.6529 H         1 IMN         0.0401
     38 H13       -22.7760   50.4635   11.9592 H         1 IMN         0.0401
     39 H14       -18.2448   51.7599   13.5989 H         1 IMN         0.0476
     40 H15       -19.5099   50.4936   13.7506 H         1 IMN         0.0476
@<TRIPOS>BOND
     1    1    2 ar 
     2    1    6 ar 
     3   20    1 am 
     4    2    3 ar 
     5    8    2 1  
     6    3    4 ar 
     7    5    4 ar 
     8    4   21 1  
     9    6    5 ar 
    10   21    7 1  
    11    9    8 2  
    12    8   18 1  
    13    9   17 1  
    14   20    9 1  
    15   10   11 1  
    16   10   20 am 
    17   10   22 2  
    18   11   12 ar 
    19   11   16 ar 
    20   12   13 ar 
    21   13   14 ar 
    22   14   15 ar 
    23   14   25 1  
    24   15   16 ar 
    25   18   19 1  
    26   19   23 ar 
    27   19   24 ar 
    28    3   26 1  
    29    5   27 1  
    30    6   28 1  
    31    7   29 1  
    32    7   30 1  
    33    7   31 1  
    34   12   32 1  
    35   13   33 1  
    36   15   34 1  
    37   16   35 1  
    38   17   36 1  
    39   17   37 1  
    40   17   38 1  
    41   18   39 1  
    42   18   40 1  
@<TRIPOS>SUBSTRUCTURE
     1 IMN         1

