### 
### Created by X-TOOL on Mon Sep 10 21:12:53 2018
### 

@<TRIPOS>MOLECULE
1z9y_ligand
   31    32     1     0     0
SMALL
GAST_HUCK


@<TRIPOS>ATOM
      1 N1         15.6380    1.4270   16.1840 N.am      1 FUN        -0.2623
      2 S1         15.1370    2.6790   16.7840 S.o2      1 FUN         0.0611
      3 O1         13.6590    2.6160   16.7330 O.2       1 FUN        -0.1521
      4 O2         15.7130    2.9170   18.0870 O.2       1 FUN        -0.1521
      5 C1         15.6100    3.9730   15.6750 C.ar      1 FUN         0.1120
      6 C2         15.2930    5.3200   15.8850 C.ar      1 FUN         0.0581
      7 CL1        14.4520    5.8080   17.3370 Cl        1 FUN        -0.0697
      8 C3         15.6370    6.3520   15.0010 C.ar      1 FUN        -0.0247
      9 C4         16.4040    6.0270   13.8880 C.ar      1 FUN         0.0555
     10 N2         16.7790    6.9930   12.9360 N.pl3     1 FUN        -0.3059
     11 C5         16.4230    8.4030   13.1460 C.3       1 FUN         0.0880
     12 C6         17.4210    9.0220   14.0850 C.2       1 FUN         0.1166
     13 C7         18.6220    9.4820   13.7380 C.2       1 FUN        -0.0686
     14 C8         19.1450    9.9670   15.0190 C.2       1 FUN        -0.0808
     15 C9         18.1450    9.7210   15.8700 C.2       1 FUN         0.0669
     16 O3         17.0770    9.0800   15.3780 O.3       1 FUN        -0.2668
     17 C10        16.6950    4.6740   13.6520 C.ar      1 FUN         0.0294
     18 C11        16.3160    3.6480   14.5140 C.ar      1 FUN        -0.0321
     19 C12        17.4990    4.2320   12.4480 C.2       1 FUN         0.0560
     20 O4         17.8720    5.0500   11.6410 O.co2     1 FUN        -0.5650
     21 O5         17.7760    2.9490   12.3240 O.co2     1 FUN        -0.5650
     22 H1         15.3183    1.1428   15.2801 H         1 FUN         0.1633
     23 H2         16.2971    0.8629   16.6814 H         1 FUN         0.1633
     24 H3         15.3151    7.3716   15.1796 H         1 FUN         0.0528
     25 H4         17.3017    6.7124   12.0940 H         1 FUN         0.1799
     26 H5         15.4154    8.4685   13.5823 H         1 FUN         0.0707
     27 H6         16.4413    8.9359   12.1839 H         1 FUN         0.0707
     28 H7         19.0936    9.4946   12.7565 H         1 FUN         0.0219
     29 H8         20.1140   10.4185   15.2265 H         1 FUN         0.0296
     30 H9         18.1958   10.0271   16.9139 H         1 FUN         0.0854
     31 H10        16.5640    2.6171   14.2885 H         1 FUN         0.0636
@<TRIPOS>BOND
     1    1    2 am 
     2    2    3 2  
     3    2    4 2  
     4    2    5 1  
     5    5    6 ar 
     6    5   18 ar 
     7    6    7 1  
     8    6    8 ar 
     9    8    9 ar 
    10    9   10 1  
    11    9   17 ar 
    12   10   11 1  
    13   11   12 1  
    14   12   13 2  
    15   12   16 1  
    16   13   14 1  
    17   14   15 2  
    18   15   16 1  
    19   17   18 ar 
    20   17   19 1  
    21   19   20 ar 
    22   19   21 ar 
    23    1   22 1  
    24    1   23 1  
    25    8   24 1  
    26   10   25 1  
    27   11   26 1  
    28   11   27 1  
    29   13   28 1  
    30   14   29 1  
    31   15   30 1  
    32   18   31 1  
@<TRIPOS>SUBSTRUCTURE
     1 FUN         1

