### 
### Created by X-TOOL on Mon Sep 10 21:12:54 2018
### 

@<TRIPOS>MOLECULE
1zaf_ligand
   28    30     1     0     0
SMALL
GAST_HUCK


@<TRIPOS>ATOM
      1 C1         33.4620   36.3160   35.9540 C.ar      1 789         0.0964
      2 C2         32.8160   35.6350   37.0420 C.ar      1 789        -0.0134
      3 C3         31.5420   36.1300   37.4560 C.ar      1 789         0.0315
      4 C4         30.9330   37.2250   36.8510 C.ar      1 789        -0.0163
      5 C5         31.5830   37.9080   35.7580 C.ar      1 789        -0.0596
      6 C6         32.8600   37.4450   35.3080 C.ar      1 789        -0.0269
      7 C10        30.6610   35.7020   38.4680 C.2       1 789         0.1733
      8 C11        29.4350   36.5800   38.4850 C.2       1 789         0.0365
      9 C12        29.6390   37.5550   37.4390 C.2       1 789         0.0219
     10 C13        28.2420   36.4590   39.4200 C.ar      1 789        -0.0226
     11 C15        26.9150   36.7450   38.9340 C.ar      1 789        -0.0606
     12 C16        25.7710   36.6530   39.7820 C.ar      1 789        -0.0303
     13 C17        25.9560   36.2660   41.1380 C.ar      1 789         0.0911
     14 C18        27.2570   35.9680   41.6570 C.ar      1 789        -0.0303
     15 C19        28.4020   36.0650   40.7970 C.ar      1 789        -0.0606
     16 O24        24.8490   36.1830   41.9420 O.3       1 789        -0.3307
     17 O25        30.8640   34.7500   39.2200 O.2       1 789        -0.3317
     18 O26        34.6920   35.8860   35.5140 O.3       1 789        -0.3296
     19 BR29       28.5450   38.9880   36.8620 Br        1 789        -0.0506
     20 H1         33.2760   34.7820   37.5277 H         1 789         0.0621
     21 H2         31.1099   38.7605   35.2843 H         1 789         0.0619
     22 H3         33.3660   37.9422   34.4884 H         1 789         0.0576
     23 H4         26.7831   37.0372   37.8985 H         1 789         0.0602
     24 H5         24.7807   36.8737   39.4003 H         1 789         0.0554
     25 H6         27.3763   35.6711   42.6927 H         1 789         0.0554
     26 H7         29.3895   35.8414   41.1842 H         1 789         0.0602
     27 H8         24.7629   35.2955   42.2699 H         1 789         0.2499
     28 H9         35.3250   36.5876   35.6115 H         1 789         0.2500
@<TRIPOS>BOND
     1    1    2 ar 
     2    1    6 ar 
     3    1   18 1  
     4    2    3 ar 
     5    3    4 ar 
     6    3    7 1  
     7    4    5 ar 
     8    4    9 1  
     9    5    6 ar 
    10    7    8 1  
    11    7   17 2  
    12    8    9 2  
    13    8   10 1  
    14    9   19 1  
    15   10   11 ar 
    16   10   15 ar 
    17   11   12 ar 
    18   12   13 ar 
    19   13   14 ar 
    20   13   16 1  
    21   14   15 ar 
    22    2   20 1  
    23    5   21 1  
    24    6   22 1  
    25   11   23 1  
    26   12   24 1  
    27   14   25 1  
    28   15   26 1  
    29   16   27 1  
    30   18   28 1  
@<TRIPOS>SUBSTRUCTURE
     1 789         1

