### 
### Created by X-TOOL on Mon Sep 10 21:12:55 2018
### 

@<TRIPOS>MOLECULE
1zd2_ligand
   29    29     1     0     0
SMALL
GAST_HUCK


@<TRIPOS>ATOM
      1 C1        -18.0030   -9.6450   67.3740 C.3       1 NC3         0.0424
      2 N2        -18.1280   -9.0860   65.9770 N.am      1 NC3        -0.2701
      3 C3        -17.3100   -8.1030   65.3770 C.2       1 NC3         0.2591
      4 N4        -17.6550   -7.7520   64.0600 N.am      1 NC3        -0.2603
      5 C5        -16.9280   -6.7180   63.2580 C.3       1 NC3         0.0836
      6 C6        -17.5550   -6.6490   61.8440 C.2       1 NC3         0.0568
      7 O7        -17.1850   -5.5580   61.1550 O.co2     1 NC3        -0.5669
      8 O8        -16.3860   -7.5550   65.9610 O.2       1 NC3        -0.4007
      9 O9        -18.2950   -7.4810   61.3710 O.co2     1 NC3        -0.5669
     10 C10       -18.5360  -11.1100   67.4220 C.3       1 NC3        -0.0301
     11 C11       -18.4280  -11.7340   68.8430 C.3       1 NC3        -0.0510
     12 C12       -16.9710  -11.6530   69.3890 C.3       1 NC3        -0.0529
     13 C13       -16.4270  -10.1930   69.3300 C.3       1 NC3        -0.0510
     14 C14       -16.5360   -9.6100   67.8950 C.3       1 NC3        -0.0301
     15 H1        -18.6191   -9.0266   68.0433 H         1 NC3         0.0553
     16 H2        -18.8705   -9.4513   65.4155 H         1 NC3         0.1848
     17 H3        -18.4300   -8.2196   63.6349 H         1 NC3         0.1866
     18 H4        -15.8657   -6.9921   63.1780 H         1 NC3         0.0686
     19 H5        -17.0179   -5.7383   63.7501 H         1 NC3         0.0686
     20 H6        -17.9492  -11.7226   66.7217 H         1 NC3         0.0287
     21 H7        -19.5922  -11.1119   67.1147 H         1 NC3         0.0287
     22 H8        -18.7342  -12.7894   68.7949 H         1 NC3         0.0266
     23 H9        -19.0968  -11.1889   69.5253 H         1 NC3         0.0266
     24 H10       -16.3234  -12.3019   68.7811 H         1 NC3         0.0265
     25 H11       -16.9595  -11.9982   70.4334 H         1 NC3         0.0265
     26 H12       -15.3712  -10.1908   69.6387 H         1 NC3         0.0266
     27 H13       -17.0115   -9.5644   70.0179 H         1 NC3         0.0266
     28 H14       -16.1852   -8.5675   67.9053 H         1 NC3         0.0287
     29 H15       -15.9026  -10.2034   67.2192 H         1 NC3         0.0287
@<TRIPOS>BOND
     1    1    2 1  
     2    1   10 1  
     3    1   14 1  
     4    2    3 am 
     5    3    4 am 
     6    3    8 2  
     7    4    5 1  
     8    5    6 1  
     9    6    7 ar 
    10    6    9 ar 
    11   10   11 1  
    12   11   12 1  
    13   12   13 1  
    14   13   14 1  
    15    1   15 1  
    16    2   16 1  
    17    4   17 1  
    18    5   18 1  
    19    5   19 1  
    20   10   20 1  
    21   10   21 1  
    22   11   22 1  
    23   11   23 1  
    24   12   24 1  
    25   12   25 1  
    26   13   26 1  
    27   13   27 1  
    28   14   28 1  
    29   14   29 1  
@<TRIPOS>SUBSTRUCTURE
     1 NC3         1

