### 
### Created by X-TOOL on Mon Sep 10 21:12:54 2018
### 

@<TRIPOS>MOLECULE
1zd3_ligand
   35    35     1     0     0
SMALL
GAST_HUCK


@<TRIPOS>ATOM
      1 C1        -17.6210   -7.3610   63.0660 C.3       1 NC4         0.0424
      2 N2        -18.0200   -7.7600   64.4210 N.am      1 NC4        -0.2701
      3 C3        -17.7790   -8.9930   64.9630 C.2       1 NC4         0.2576
      4 N4        -18.2270   -9.1620   66.2440 N.am      1 NC4        -0.2731
      5 C5        -18.0320  -10.4100   66.9900 C.3       1 NC4         0.0327
      6 C6        -18.1580  -10.1230   68.4920 C.3       1 NC4        -0.0214
      7 C7        -16.9560  -10.6580   69.2970 C.3       1 NC4         0.0020
      8 C8        -17.0630  -10.3930   70.7970 C.2       1 NC4         0.0349
      9 O9        -15.9950  -10.8730   71.4680 O.co2     1 NC4        -0.5690
     10 O10       -17.2040   -9.8610   64.3660 O.2       1 NC4        -0.4008
     11 O11       -17.9610   -9.8310   71.3770 O.co2     1 NC4        -0.5690
     12 C12       -18.6010   -6.3010   62.4940 C.3       1 NC4        -0.0301
     13 C13       -18.1890   -5.8690   61.0700 C.3       1 NC4        -0.0510
     14 C14       -16.7410   -5.3230   61.0530 C.3       1 NC4        -0.0529
     15 C15       -15.7300   -6.3360   61.6540 C.3       1 NC4        -0.0510
     16 C16       -16.1780   -6.7800   63.0760 C.3       1 NC4        -0.0301
     17 H1        -17.6422   -8.2495   62.4178 H         1 NC4         0.0553
     18 H2        -18.4990   -7.0870   64.9846 H         1 NC4         0.1848
     19 H3        -18.7060   -8.4056   66.6894 H         1 NC4         0.1845
     20 H4        -17.0321  -10.8150   66.7752 H         1 NC4         0.0518
     21 H5        -18.7963  -11.1418   66.6896 H         1 NC4         0.0518
     22 H6        -19.0749  -10.6011   68.8671 H         1 NC4         0.0302
     23 H7        -18.2252   -9.0350   68.6391 H         1 NC4         0.0302
     24 H8        -16.0422  -10.1739   68.9220 H         1 NC4         0.0431
     25 H9        -16.8867  -11.7444   69.1392 H         1 NC4         0.0431
     26 H10       -18.5986   -5.4188   63.1511 H         1 NC4         0.0287
     27 H11       -19.6133   -6.7300   62.4598 H         1 NC4         0.0287
     28 H12       -18.8740   -5.0826   60.7204 H         1 NC4         0.0266
     29 H13       -18.2539   -6.7373   60.3978 H         1 NC4         0.0266
     30 H14       -16.7049   -4.3941   61.6410 H         1 NC4         0.0265
     31 H15       -16.4541   -5.1099   60.0127 H         1 NC4         0.0265
     32 H16       -14.7393   -5.8625   61.7188 H         1 NC4         0.0266
     33 H17       -15.6723   -7.2194   61.0011 H         1 NC4         0.0266
     34 H18       -15.4852   -7.5510   63.4441 H         1 NC4         0.0287
     35 H19       -16.1482   -5.9094   63.7477 H         1 NC4         0.0287
@<TRIPOS>BOND
     1    1    2 1  
     2    1   12 1  
     3    1   16 1  
     4    2    3 am 
     5    3    4 am 
     6    3   10 2  
     7    4    5 1  
     8    5    6 1  
     9    6    7 1  
    10    7    8 1  
    11    8    9 ar 
    12    8   11 ar 
    13   12   13 1  
    14   13   14 1  
    15   14   15 1  
    16   15   16 1  
    17    1   17 1  
    18    2   18 1  
    19    4   19 1  
    20    5   20 1  
    21    5   21 1  
    22    6   22 1  
    23    6   23 1  
    24    7   24 1  
    25    7   25 1  
    26   12   26 1  
    27   12   27 1  
    28   13   28 1  
    29   13   29 1  
    30   14   30 1  
    31   14   31 1  
    32   15   32 1  
    33   15   33 1  
    34   16   34 1  
    35   16   35 1  
@<TRIPOS>SUBSTRUCTURE
     1 NC4         1

