### 
### Created by X-TOOL on Mon Sep 10 21:12:55 2018
### 

@<TRIPOS>MOLECULE
1zd4_ligand
   41    41     1     0     0
SMALL
GAST_HUCK


@<TRIPOS>ATOM
      1 C1         15.4350   11.5450  141.5140 C.3       1 NC6         0.0424
      2 N2         16.1780   11.9470  140.3000 N.am      1 NC6        -0.2701
      3 C3         16.8440   11.0560  139.4790 C.2       1 NC6         0.2576
      4 N4         17.2680   11.5780  138.2730 N.am      1 NC6        -0.2732
      5 C5         17.9600   10.7740  137.2560 C.3       1 NC6         0.0312
      6 C6         17.0330   10.6330  136.0430 C.3       1 NC6        -0.0329
      7 C7         17.6420    9.8050  134.9080 C.3       1 NC6        -0.0498
      8 C8         16.6670    9.6990  133.7260 C.3       1 NC6        -0.0414
      9 C9         17.2350    8.8690  132.5630 C.3       1 NC6         0.0002
     10 O10        17.0230    9.8970  139.7860 O.2       1 NC6        -0.4008
     11 C11        16.2810    8.7440  131.3780 C.2       1 NC6         0.0348
     12 O12        16.8260    8.0060  130.3840 O.co2     1 NC6        -0.5690
     13 O13        15.1650    9.2190  131.2760 O.co2     1 NC6        -0.5690
     14 C14        15.1970   12.7700  142.4340 C.3       1 NC6        -0.0301
     15 C15        14.4100   12.3770  143.7090 C.3       1 NC6        -0.0510
     16 C16        13.0640   11.6810  143.3630 C.3       1 NC6        -0.0529
     17 C17        13.2610   10.4890  142.3900 C.3       1 NC6        -0.0510
     18 C18        14.0630   10.9120  141.1310 C.3       1 NC6        -0.0301
     19 H1         16.0308   10.7993  142.0607 H         1 NC6         0.0553
     20 H2         16.1999   12.9174  140.0596 H         1 NC6         0.1848
     21 H3         17.0968   12.5448  138.0835 H         1 NC6         0.1845
     22 H4         18.1936    9.7793  137.6635 H         1 NC6         0.0517
     23 H5         18.8919   11.2754  136.9559 H         1 NC6         0.0517
     24 H6         16.8057   11.6383  135.6586 H         1 NC6         0.0284
     25 H7         16.1022   10.1462  136.3696 H         1 NC6         0.0284
     26 H8         17.8688    8.7950  135.2800 H         1 NC6         0.0267
     27 H9         18.5701   10.2874  134.5676 H         1 NC6         0.0267
     28 H10        16.4455   10.7124  133.3601 H         1 NC6         0.0283
     29 H11        15.7386    9.2246  134.0767 H         1 NC6         0.0283
     30 H12        17.4617    7.8589  132.9349 H         1 NC6         0.0430
     31 H13        18.1618    9.3479  132.2142 H         1 NC6         0.0430
     32 H14        14.6240   13.5277  141.8795 H         1 NC6         0.0287
     33 H15        16.1699   13.1897  142.7295 H         1 NC6         0.0287
     34 H16        14.2015   13.2854  144.2933 H         1 NC6         0.0266
     35 H17        15.0235   11.6883  144.3083 H         1 NC6         0.0266
     36 H18        12.3942   12.4162  142.8932 H         1 NC6         0.0265
     37 H19        12.6069   11.3096  144.2920 H         1 NC6         0.0265
     38 H20        12.2747   10.1157  142.0772 H         1 NC6         0.0266
     39 H21        13.8078    9.6889  142.9104 H         1 NC6         0.0266
     40 H22        14.2408   10.0247  140.5056 H         1 NC6         0.0287
     41 H23        13.4753   11.6487  140.5637 H         1 NC6         0.0287
@<TRIPOS>BOND
     1    1    2 1  
     2    1   14 1  
     3    1   18 1  
     4    2    3 am 
     5    3    4 am 
     6    3   10 2  
     7    4    5 1  
     8    5    6 1  
     9    6    7 1  
    10    7    8 1  
    11    8    9 1  
    12    9   11 1  
    13   11   12 ar 
    14   11   13 ar 
    15   14   15 1  
    16   15   16 1  
    17   16   17 1  
    18   17   18 1  
    19    1   19 1  
    20    2   20 1  
    21    4   21 1  
    22    5   22 1  
    23    5   23 1  
    24    6   24 1  
    25    6   25 1  
    26    7   26 1  
    27    7   27 1  
    28    8   28 1  
    29    8   29 1  
    30    9   30 1  
    31    9   31 1  
    32   14   32 1  
    33   14   33 1  
    34   15   34 1  
    35   15   35 1  
    36   16   36 1  
    37   16   37 1  
    38   17   38 1  
    39   17   39 1  
    40   18   40 1  
    41   18   41 1  
@<TRIPOS>SUBSTRUCTURE
     1 NC6         1

