### 
### Created by X-TOOL on Mon Sep 10 21:12:55 2018
### 

@<TRIPOS>MOLECULE
1zd5_ligand
   44    44     1     0     0
SMALL
GAST_HUCK


@<TRIPOS>ATOM
      1 C1        -17.9510  -10.0790   67.0620 C.3       1 NC7         0.0424
      2 N2        -18.4930   -8.9740   66.2480 N.am      1 NC7        -0.2701
      3 C3        -17.8940   -8.5860   65.0710 C.2       1 NC7         0.2576
      4 N4        -18.3350   -7.4330   64.4890 N.am      1 NC7        -0.2732
      5 C5        -17.4680   -6.9930   63.4290 C.3       1 NC7         0.0312
      6 C6        -17.8250   -7.3860   61.9880 C.3       1 NC7        -0.0330
      7 C7        -16.5710   -6.8340   61.3630 C.3       1 NC7        -0.0512
      8 C8        -16.2610   -6.8480   59.8890 C.3       1 NC7        -0.0515
      9 C9        -14.8580   -6.2520   60.0770 C.3       1 NC7        -0.0414
     10 O10       -16.9180   -9.1450   64.6460 O.2       1 NC7        -0.4008
     11 C11       -13.9420   -5.9930   58.9100 C.3       1 NC7         0.0002
     12 C12       -12.5890   -5.4870   59.4360 C.2       1 NC7         0.0348
     13 O13       -11.7690   -5.2300   58.4120 O.co2     1 NC7        -0.5690
     14 O14       -12.2380   -5.3120   60.6100 O.co2     1 NC7        -0.5690
     15 C15       -17.6440   -9.5840   68.4900 C.3       1 NC7        -0.0301
     16 C16       -17.1070  -10.7260   69.3840 C.3       1 NC7        -0.0510
     17 C17       -18.0920  -11.9230   69.4270 C.3       1 NC7        -0.0529
     18 C18       -18.4540  -12.4130   68.0040 C.3       1 NC7        -0.0510
     19 C19       -18.9870  -11.2460   67.1280 C.3       1 NC7        -0.0301
     20 H1        -17.0226  -10.4449   66.5992 H         1 NC7         0.0553
     21 H2        -19.3146   -8.4959   66.5587 H         1 NC7         0.1848
     22 H3        -19.1651   -6.9498   64.7674 H         1 NC7         0.1845
     23 H4        -16.4664   -7.3967   63.6383 H         1 NC7         0.0517
     24 H5        -17.4362   -5.8942   63.4688 H         1 NC7         0.0517
     25 H6        -18.7362   -6.8884   61.6245 H         1 NC7         0.0284
     26 H7        -17.9233   -8.4735   61.8554 H         1 NC7         0.0284
     27 H8        -15.7419   -7.3755   61.8420 H         1 NC7         0.0266
     28 H9        -16.5373   -5.7753   61.6595 H         1 NC7         0.0266
     29 H10       -16.9303   -6.2053   59.2983 H         1 NC7         0.0266
     30 H11       -16.2488   -7.8597   59.4573 H         1 NC7         0.0266
     31 H12       -14.3184   -6.9379   60.7466 H         1 NC7         0.0283
     32 H13       -14.9987   -5.2838   60.5797 H         1 NC7         0.0283
     33 H14       -14.3891   -5.2331   58.2522 H         1 NC7         0.0430
     34 H15       -13.7924   -6.9249   58.3450 H         1 NC7         0.0430
     35 H16       -18.5671   -9.1853   68.9360 H         1 NC7         0.0287
     36 H17       -16.8882   -8.7866   68.4369 H         1 NC7         0.0287
     37 H18       -16.9640  -10.3436   70.4054 H         1 NC7         0.0266
     38 H19       -16.1424  -11.0708   68.9831 H         1 NC7         0.0266
     39 H20       -19.0123  -11.6100   69.9418 H         1 NC7         0.0265
     40 H21       -17.6249  -12.7502   69.9815 H         1 NC7         0.0265
     41 H22       -19.2296  -13.1895   68.0781 H         1 NC7         0.0266
     42 H23       -17.5557  -12.8360   67.5306 H         1 NC7         0.0266
     43 H24       -19.1762  -11.6174   66.1100 H         1 NC7         0.0287
     44 H25       -19.9255  -10.8701   67.5615 H         1 NC7         0.0287
@<TRIPOS>BOND
     1    1    2 1  
     2    1   15 1  
     3    1   19 1  
     4    2    3 am 
     5    3    4 am 
     6    3   10 2  
     7    4    5 1  
     8    5    6 1  
     9    6    7 1  
    10    7    8 1  
    11    8    9 1  
    12    9   11 1  
    13   11   12 1  
    14   12   13 ar 
    15   12   14 ar 
    16   15   16 1  
    17   16   17 1  
    18   17   18 1  
    19   18   19 1  
    20    1   20 1  
    21    2   21 1  
    22    4   22 1  
    23    5   23 1  
    24    5   24 1  
    25    6   25 1  
    26    6   26 1  
    27    7   27 1  
    28    7   28 1  
    29    8   29 1  
    30    8   30 1  
    31    9   31 1  
    32    9   32 1  
    33   11   33 1  
    34   11   34 1  
    35   15   35 1  
    36   15   36 1  
    37   16   37 1  
    38   16   38 1  
    39   17   39 1  
    40   17   40 1  
    41   18   41 1  
    42   18   42 1  
    43   19   43 1  
    44   19   44 1  
@<TRIPOS>SUBSTRUCTURE
     1 NC7         1

