### 
### Created by X-TOOL on Mon Sep 10 21:12:52 2018
### 

@<TRIPOS>MOLECULE
1ze8_ligand
   42    43     1     0     0
SMALL
GAST_HUCK


@<TRIPOS>ATOM
      1 S1         -5.9260    1.0470   16.7310 S.o2      1 PIU         0.0628
      2 O1         -5.3180    1.1370   18.0510 O.2       1 PIU        -0.1514
      3 O2         -7.3600    0.9510   16.6220 O.2       1 PIU        -0.1514
      4 N1         -5.3200   -0.2510   16.0540 N.am      1 PIU        -0.2617
      5 C1         -5.8730    4.8280   15.0170 C.ar      1 PIU        -0.0585
      6 C3         -3.6230    3.8390   14.6280 C.ar      1 PIU        -0.0585
      7 C4         -4.0530    2.6260   15.2880 C.ar      1 PIU        -0.0419
      8 C6         -6.2930    3.6320   15.6680 C.ar      1 PIU        -0.0419
      9 C2         -4.5470    4.9360   14.4970 C.ar      1 PIU        -0.0420
     10 C5         -5.3920    2.5250   15.8040 C.ar      1 PIU         0.1009
     11 C15        -4.1220    6.2180   13.8160 C.3       1 PIU        -0.0075
     12 C16        -4.6140    6.3900   12.3810 C.3       1 PIU         0.0248
     13 N2         -4.6250    7.8330   11.9070 N.ar      1 PIU        -0.2929
     14 C7         -3.4390    9.8460   11.0770 C.ar      1 PIU         0.0608
     15 C9         -5.9160    9.8620   11.3380 C.ar      1 PIU         0.0608
     16 C10        -5.8850    8.5230   11.8050 C.ar      1 PIU         0.0960
     17 C11        -3.3930    8.5010   11.5400 C.ar      1 PIU         0.0960
     18 C8         -4.6990   10.5110   10.9830 C.ar      1 PIU         0.0553
     19 C12        -4.7510   11.9400   10.5330 C.3       1 PIU        -0.0076
     20 C13        -1.9930    7.9110   11.5970 C.3       1 PIU         0.0231
     21 C14        -7.2290    7.9440   12.1830 C.3       1 PIU         0.0231
     22 H1         -4.3292   -0.3823   16.0225 H         1 PIU         0.1634
     23 H2         -5.9284   -0.9389   15.6582 H         1 PIU         0.1634
     24 H3         -6.5621    5.6587   14.9161 H         1 PIU         0.0557
     25 H4         -2.6157    3.9216   14.2360 H         1 PIU         0.0557
     26 H5         -3.3668    1.7936   15.3938 H         1 PIU         0.0619
     27 H6         -7.2999    3.5587   16.0628 H         1 PIU         0.0619
     28 H7         -3.0225    6.2478   13.8038 H         1 PIU         0.0436
     29 H8         -4.5051    7.0611   14.4097 H         1 PIU         0.0436
     30 H9         -5.6387    5.9955   12.3158 H         1 PIU         0.0429
     31 H10        -3.9554    5.8115   11.7166 H         1 PIU         0.0429
     32 H11        -2.5264   10.3605   10.7985 H         1 PIU         0.1278
     33 H12        -6.8599   10.3879   11.2519 H         1 PIU         0.1278
     34 H13        -3.7341   12.2878   10.2985 H         1 PIU         0.0431
     35 H14        -5.1753   12.5618   11.3351 H         1 PIU         0.0431
     36 H15        -5.3817   12.0190    9.6352 H         1 PIU         0.0431
     37 H16        -1.2648    8.6612   11.2552 H         1 PIU         0.0653
     38 H17        -1.9411    7.0263   10.9455 H         1 PIU         0.0653
     39 H18        -1.7601    7.6187   12.6316 H         1 PIU         0.0653
     40 H19        -8.0147    8.6922   12.0017 H         1 PIU         0.0653
     41 H20        -7.2234    7.6690   13.2480 H         1 PIU         0.0653
     42 H21        -7.4272    7.0494   11.5744 H         1 PIU         0.0653
@<TRIPOS>BOND
     1    1    2 2  
     2    1    3 2  
     3    1    4 am 
     4   10    1 1  
     5    5    8 ar 
     6    9    5 ar 
     7    7    6 ar 
     8    6    9 ar 
     9    7   10 ar 
    10    8   10 ar 
    11    9   11 1  
    12   11   12 1  
    13   12   13 1  
    14   13   16 ar 
    15   13   17 ar 
    16   17   14 ar 
    17   14   18 ar 
    18   16   15 ar 
    19   15   18 ar 
    20   16   21 1  
    21   17   20 1  
    22   18   19 1  
    23    4   22 1  
    24    4   23 1  
    25    5   24 1  
    26    6   25 1  
    27    7   26 1  
    28    8   27 1  
    29   11   28 1  
    30   11   29 1  
    31   12   30 1  
    32   12   31 1  
    33   14   32 1  
    34   15   33 1  
    35   19   34 1  
    36   19   35 1  
    37   19   36 1  
    38   20   37 1  
    39   20   38 1  
    40   20   39 1  
    41   21   40 1  
    42   21   41 1  
    43   21   42 1  
@<TRIPOS>SUBSTRUCTURE
     1 PIU         1

