### 
### Created by X-TOOL on Mon Sep 10 21:12:54 2018
### 

@<TRIPOS>MOLECULE
1zea_ligand
  129   131     1     0     0
SMALL
GAST_HUCK


@<TRIPOS>ATOM
      1 N          37.8820   53.4850   93.7850 N.4       1 DVA         0.2381
      2 CA         39.1060   52.8250   94.3190 C.3       1 DVA         0.0675
      3 CB         38.8570   51.3140   94.4940 C.3       1 DVA         0.0139
      4 CG1        37.8020   51.0730   95.5620 C.3       1 DVA        -0.0553
      5 CG2        38.3960   50.7300   93.1560 C.3       1 DVA        -0.0553
      6 C          39.5570   53.5590   95.6040 C.2       1 DVA         0.2295
      7 O          39.1260   54.6960   95.8310 O.2       1 DVA        -0.3905
      8 N          40.4460   52.9620   96.4400 N.am      1 DPR        -0.2471
      9 CA         41.1580   51.6750   96.4300 C.3       1 DPR         0.1339
     10 CB         41.6390   51.5430   97.8680 C.3       1 DPR        -0.0104
     11 CG         41.9980   52.9510   98.1900 C.3       1 DPR        -0.0281
     12 CD         40.8100   53.7250   97.6500 C.3       1 DPR         0.0371
     13 C          42.3240   51.7180   95.4450 C.2       1 DPR         0.2039
     14 O          43.3630   51.0810   95.6430 O.2       1 DPR        -0.3944
     15 N          42.1350   52.4930   94.3860 N.am      1 GLY        -0.2664
     16 CA         43.1500   52.6270   93.3700 C.3       1 GLY         0.1201
     17 C          42.4440   52.7410   92.0440 C.2       1 GLY         0.2008
     18 O          41.2140   52.7400   91.9860 O.2       1 GLY        -0.3947
     19 N          43.2200   52.8370   90.9760 N.am      1 DSN        -0.2618
     20 CA         42.6740   52.9550   89.6430 C.3       1 DSN         0.1539
     21 C          43.3200   54.1600   88.9860 C.2       1 DSN         0.2062
     22 O          44.5160   54.3680   89.1140 O.2       1 DSN        -0.3943
     23 CB         43.0510   51.7330   88.8120 C.3       1 DSN         0.0843
     24 OG         42.7100   51.9450   87.4520 O.3       1 DSN        -0.3903
     25 N          42.5390   54.9430   88.2640 N.am      1 DGN        -0.2635
     26 CA         43.1200   56.0860   87.5790 C.3       1 DGN         0.1330
     27 C          43.9980   55.6260   86.4180 C.2       1 DGN         0.2041
     28 O          44.8030   56.4020   85.8940 O.2       1 DGN        -0.3944
     29 CB         42.0010   57.0040   87.0710 C.3       1 DGN         0.0045
     30 CG         41.2140   57.6270   88.2500 C.3       1 DGN         0.0412
     31 CD         39.9770   58.4380   87.8250 C.2       1 DGN         0.1737
     32 OE1        39.2450   58.9790   88.6740 O.2       1 DGN        -0.3973
     33 NE2        39.7500   58.5310   86.5310 N.am      1 DGN        -0.3009
     34 N          43.8400   54.3630   86.0190 N.am      1 DHI        -0.2625
     35 CA         44.6000   53.8080   84.8780 C.3       1 DHI         0.1369
     36 C          45.9060   53.1770   85.2650 C.2       1 DHI         0.2055
     37 O          46.8340   53.1170   84.4460 O.2       1 DHI        -0.3942
     38 CB         43.8350   52.6860   84.1730 C.3       1 DHI         0.0145
     39 CG         42.6250   53.1420   83.4150 C.2       1 DHI        -0.0027
     40 ND1        42.6950   53.6830   82.1460 N.2       1 DHI        -0.3252
     41 CD2        41.3120   53.1140   83.7450 C.2       1 DHI         0.0291
     42 CE1        41.4710   53.9650   81.7230 C.2       1 DHI         0.0907
     43 NE2        40.6110   53.6290   82.6770 N.pl3     1 DHI        -0.2752
     44 N          45.9640   52.6780   86.4950 N.am      1 DTY        -0.2620
     45 CA         47.1310   51.9110   86.9290 C.3       1 DTY         0.1390
     46 C          47.8150   52.4090   88.1960 C.2       1 DTY         0.2058
     47 O          48.9250   51.9700   88.5100 O.2       1 DTY        -0.3942
     48 CB         46.6990   50.4520   87.1080 C.3       1 DTY         0.0163
     49 CG         45.9710   49.9000   85.8920 C.ar      1 DTY        -0.0493
     50 CD1        46.6160   49.7990   84.6550 C.ar      1 DTY        -0.0685
     51 CD2        44.6270   49.5110   85.9740 C.ar      1 DTY        -0.0685
     52 CE1        45.9530   49.3240   83.5110 C.ar      1 DTY        -0.0398
     53 CE2        43.9470   49.0290   84.8410 C.ar      1 DTY        -0.0398
     54 CZ         44.6040   48.9350   83.6230 C.ar      1 DTY         0.0805
     55 OH         43.9220   48.4420   82.5330 O.3       1 DTY        -0.3376
     56 N          47.1450   53.3070   88.9160 N.am      1 DAS        -0.2620
     57 CA         47.6910   53.8780   90.1550 C.3       1 DAS         0.1423
     58 C          47.9100   55.3890   90.1030 C.2       1 DAS         0.2051
     59 O          47.6120   56.0510   89.1000 O.2       1 DAS        -0.3943
     60 CB         46.7570   53.5930   91.3330 C.3       1 DAS         0.0406
     61 CG         46.4750   52.1240   91.5070 C.2       1 DAS         0.0393
     62 OD1        47.4160   51.3140   91.3580 O.co2     1 DAS        -0.5688
     63 OD2        45.3210   51.7770   91.8080 O.co2     1 DAS        -0.5688
     64 N          48.4200   55.8980   91.2260 N.am      1 DSN        -0.2671
     65 CA         48.7020   57.3100   91.4910 C.3       1 DSN         0.1173
     66 C          50.1600   57.6950   91.2850 C.2       1 DSN         0.0623
     67 O          50.4500   58.4390   90.3260 O.co2     1 DSN        -0.5665
     68 OXT        50.9930   57.2420   92.1040 O.co2     1 DSN        -0.5665
     69 CB         47.7910   58.2300   90.6690 C.3       1 DSN         0.0789
     70 OG         47.9550   59.5890   91.0560 O.3       1 DSN        -0.3910
     71 H1         37.5831   53.0110   92.9472 H         1 DVA         0.2015
     72 H2         38.0860   54.4487   93.5712 H         1 DVA         0.2015
     73 H3         37.1487   53.4419   94.4752 H         1 DVA         0.2015
     74 H4         39.9105   52.9378   93.5774 H         1 DVA         0.1101
     75 H5         39.7938   50.8253   94.7998 H         1 DVA         0.0376
     76 H6         37.6354   49.9916   95.6754 H         1 DVA         0.0236
     77 H7         36.8614   51.5597   95.2647 H         1 DVA         0.0236
     78 H8         38.1459   51.4932   96.5186 H         1 DVA         0.0236
     79 H9         39.1667   50.9104   92.3922 H         1 DVA         0.0236
     80 H10        37.4562   51.2125   92.8496 H         1 DVA         0.0236
     81 H11        38.2339   49.6475   93.2648 H         1 DVA         0.0236
     82 H12        40.4831   50.8483   96.1633 H         1 DPR         0.0802
     83 H13        42.5128   50.8788   97.9403 H         1 DPR         0.0313
     84 H14        40.8403   51.1712   98.5266 H         1 DPR         0.0313
     85 H15        42.9290   53.2491   97.6856 H         1 DPR         0.0287
     86 H16        42.1063   53.0953   99.2751 H         1 DPR         0.0287
     87 H17        39.9825   53.7373   98.3747 H         1 DPR         0.0524
     88 H18        41.0917   54.7579   97.3974 H         1 DPR         0.0524
     89 H19        41.2743   52.9930   94.2900 H         1 GLY         0.1881
     90 H20        43.8048   51.7431   93.3731 H         1 GLY         0.0763
     91 H21        43.7512   53.5294   93.5551 H         1 GLY         0.0763
     92 H22        44.2129   52.8276   91.0949 H         1 DSN         0.1884
     93 H23        41.5807   53.0688   89.6856 H         1 DSN         0.0823
     94 H24        42.5085   50.8541   89.1904 H         1 DSN         0.0606
     95 H25        44.1340   51.5581   88.8926 H         1 DSN         0.0606
     96 H26        42.9487   51.1788   86.9437 H         1 DSN         0.2097
     97 H27        41.5602   54.7520   88.1895 H         1 DGN         0.1883
     98 H28        43.7436   56.6466   88.2909 H         1 DGN         0.0801
     99 H29        41.3100   56.4174   86.4477 H         1 DGN         0.0337
    100 H30        42.4437   57.8107   86.4683 H         1 DGN         0.0337
    101 H31        41.8914   58.2951   88.8020 H         1 DGN         0.0504
    102 H32        40.8822   56.8132   88.9115 H         1 DGN         0.0504
    103 H33        38.9602   59.0459   86.1976 H         1 DGN         0.1814
    104 H34        40.3674   58.0867   85.8818 H         1 DGN         0.1814
    105 H35        43.1911   53.7764   86.5037 H         1 DHI         0.1885
    106 H36        44.7893   54.6284   84.1702 H         1 DHI         0.0817
    107 H37        43.5111   51.9601   84.9333 H         1 DHI         0.0420
    108 H38        44.5193   52.1951   83.4653 H         1 DHI         0.0420
    109 H39        40.8890   52.7517   84.6808 H         1 DHI         0.0729
    110 H40        41.2144   54.3984   80.7575 H         1 DHI         0.1199
    111 H41        39.5878   53.7359   82.6268 H         1 DHI         0.2361
    112 H42        45.2046   52.8279   87.1282 H         1 DTY         0.1885
    113 H43        47.8755   51.9591   86.1207 H         1 DTY         0.0821
    114 H44        46.0289   50.3880   87.9779 H         1 DTY         0.0453
    115 H45        47.5947   49.8398   87.2893 H         1 DTY         0.0453
    116 H46        47.6558   50.0953   84.5768 H         1 DTY         0.0530
    117 H47        44.1055   49.5824   86.9216 H         1 DTY         0.0530
    118 H48        46.4698   49.2582   82.5604 H         1 DTY         0.0525
    119 H49        42.9079   48.7305   84.9198 H         1 DTY         0.0525
    120 H50        44.4969   48.4374   81.7767 H         1 DTY         0.2458
    121 H51        46.2420   53.6020   88.6036 H         1 DAS         0.1884
    122 H52        48.6616   53.3962   90.3439 H         1 DAS         0.0819
    123 H53        45.8048   54.1165   91.1622 H         1 DAS         0.0478
    124 H54        47.2246   53.9732   92.2532 H         1 DAS         0.0478
    125 H55        48.6304   55.2512   91.9590 H         1 DSN         0.1876
    126 H56        48.4721   57.4835   92.5526 H         1 DSN         0.0749
    127 H57        46.7435   57.9347   90.8285 H         1 DSN         0.0599
    128 H58        48.0430   58.1267   89.6032 H         1 DSN         0.0599
    129 H59        48.8577   59.8500   90.9167 H         1 DSN         0.2096
@<TRIPOS>BOND
     1    1    2 1  
     2    2    3 1  
     3    2    6 1  
     4    3    4 1  
     5    3    5 1  
     6    6    7 2  
     7    6    8 am 
     8    8    9 1  
     9    8   12 1  
    10    9   10 1  
    11    9   13 1  
    12   10   11 1  
    13   11   12 1  
    14   13   14 2  
    15   13   15 am 
    16   15   16 1  
    17   16   17 1  
    18   17   18 2  
    19   17   19 am 
    20   19   20 1  
    21   20   21 1  
    22   20   23 1  
    23   21   22 2  
    24   21   25 am 
    25   23   24 1  
    26   25   26 1  
    27   26   27 1  
    28   26   29 1  
    29   27   28 2  
    30   27   34 am 
    31   29   30 1  
    32   30   31 1  
    33   31   32 2  
    34   31   33 am 
    35   34   35 1  
    36   35   36 1  
    37   35   38 1  
    38   36   37 2  
    39   36   44 am 
    40   38   39 1  
    41   39   40 1  
    42   39   41 2  
    43   40   42 2  
    44   41   43 1  
    45   42   43 1  
    46   44   45 1  
    47   45   46 1  
    48   45   48 1  
    49   46   47 2  
    50   46   56 am 
    51   48   49 1  
    52   49   50 ar 
    53   49   51 ar 
    54   50   52 ar 
    55   51   53 ar 
    56   52   54 ar 
    57   53   54 ar 
    58   54   55 1  
    59   56   57 1  
    60   57   58 1  
    61   57   60 1  
    62   58   59 2  
    63   58   64 am 
    64   60   61 1  
    65   61   62 ar 
    66   61   63 ar 
    67   64   65 1  
    68   65   66 1  
    69   65   69 1  
    70   66   67 ar 
    71   66   68 ar 
    72   69   70 1  
    73    1   71 1  
    74    1   72 1  
    75    1   73 1  
    76    2   74 1  
    77    3   75 1  
    78    4   76 1  
    79    4   77 1  
    80    4   78 1  
    81    5   79 1  
    82    5   80 1  
    83    5   81 1  
    84    9   82 1  
    85   10   83 1  
    86   10   84 1  
    87   11   85 1  
    88   11   86 1  
    89   12   87 1  
    90   12   88 1  
    91   15   89 1  
    92   16   90 1  
    93   16   91 1  
    94   19   92 1  
    95   20   93 1  
    96   23   94 1  
    97   23   95 1  
    98   24   96 1  
    99   25   97 1  
   100   26   98 1  
   101   29   99 1  
   102   29  100 1  
   103   30  101 1  
   104   30  102 1  
   105   33  103 1  
   106   33  104 1  
   107   34  105 1  
   108   35  106 1  
   109   38  107 1  
   110   38  108 1  
   111   41  109 1  
   112   42  110 1  
   113   43  111 1  
   114   44  112 1  
   115   45  113 1  
   116   48  114 1  
   117   48  115 1  
   118   50  116 1  
   119   51  117 1  
   120   52  118 1  
   121   53  119 1  
   122   55  120 1  
   123   56  121 1  
   124   57  122 1  
   125   60  123 1  
   126   60  124 1  
   127   64  125 1  
   128   65  126 1  
   129   69  127 1  
   130   69  128 1  
   131   70  129 1  
@<TRIPOS>SUBSTRUCTURE
     1 DVA         1

