### 
### Created by X-TOOL on Mon Sep 10 21:12:54 2018
### 

@<TRIPOS>MOLECULE
1zeo_ligand
   61    63     1     0     0
SMALL
GAST_HUCK


@<TRIPOS>ATOM
      1 C1         21.3430    6.1890   14.8940 C.ar      1 C01        -0.0246
      2 C2         21.3070    7.0550   16.0460 C.ar      1 C01         0.0968
      3 C3         21.9410    8.3830   15.9580 C.ar      1 C01         0.0186
      4 C4         22.5680    8.7370   14.6910 C.ar      1 C01         0.1367
      5 C5         22.5670    7.8480   13.6040 C.ar      1 C01         0.0586
      6 C6         21.9860    6.5990   13.6840 C.ar      1 C01        -0.0639
      7 O8         23.2480    9.9190   14.3110 O.3       1 C01        -0.1881
      8 N9         23.6510    9.6700   12.9390 N.am      1 C01        -0.1299
      9 C10        23.2820    8.4460   12.4820 C.2       1 C01         0.2151
     10 C11        24.4030   10.6080   12.0960 C.3       1 C01         0.0571
     11 O15        23.4970    7.9900   11.3540 O.2       1 C01        -0.4021
     12 C16        21.9780    9.3750   17.1350 C.3       1 C01        -0.0240
     13 C17        20.7540   10.2820   17.3190 C.3       1 C01        -0.0495
     14 C20        20.9100   11.1900   18.5310 C.3       1 C01        -0.0639
     15 C26        20.7370    4.8170   14.8990 C.3       1 C01        -0.0267
     16 C27        19.6800    4.6890   13.8080 C.3       1 C01        -0.0491
     17 C30        19.0930    3.2910   13.7840 C.3       1 C01        -0.0639
     18 O36        20.6650    6.5880   17.2540 O.3       1 C01        -0.2966
     19 C37        19.3930    7.1510   17.6720 C.3       1 C01         0.1612
     20 C38        18.2420    6.5980   16.8450 C.ar      1 C01        -0.0038
     21 C39        19.1490    6.9320   19.2070 C.2       1 C01         0.0795
     22 C40        17.5740    7.4790   15.9720 C.ar      1 C01        -0.0623
     23 C41        16.5110    7.0470   15.1610 C.ar      1 C01        -0.0662
     24 C42        16.0550    5.7120   15.1910 C.ar      1 C01        -0.0470
     25 C43        16.7210    4.7930   16.0770 C.ar      1 C01        -0.0662
     26 C44        17.8040    5.2270   16.9060 C.ar      1 C01        -0.0623
     27 C49        14.8870    5.3210   14.2770 C.3       1 C01        -0.0161
     28 C50        15.3640    4.6130   13.0080 C.3       1 C01        -0.0537
     29 C54        13.8470    4.4720   15.0330 C.3       1 C01        -0.0537
     30 O60        18.0930    7.0170   19.7520 O.co2     1 C01        -0.5639
     31 O61        20.2780    6.6580   19.8770 O.co2     1 C01        -0.5639
     32 H1         22.0168    5.9300   12.8316 H         1 C01         0.0491
     33 H2         24.5692   10.1587   11.1058 H         1 C01         0.0524
     34 H3         25.3728   10.8274   12.5665 H         1 C01         0.0524
     35 H4         23.8304   11.5405   11.9841 H         1 C01         0.0524
     36 H5         22.8544   10.0246   16.9943 H         1 C01         0.0377
     37 H6         22.0996    8.7900   18.0586 H         1 C01         0.0377
     38 H7         19.8611    9.6542   17.4552 H         1 C01         0.0279
     39 H8         20.6314   10.9038   16.4199 H         1 C01         0.0279
     40 H9         20.0167   11.8240   18.6315 H         1 C01         0.0231
     41 H10        21.7981   11.8259   18.4009 H         1 C01         0.0231
     42 H11        21.0278   10.5763   19.4362 H         1 C01         0.0231
     43 H12        20.2696    4.6326   15.8775 H         1 C01         0.0383
     44 H13        21.5278    4.0726   14.7242 H         1 C01         0.0383
     45 H14        20.1416    4.9024   12.8326 H         1 C01         0.0280
     46 H15        18.8753    5.4141   13.9994 H         1 C01         0.0280
     47 H16        18.3347    3.2253   12.9898 H         1 C01         0.0231
     48 H17        18.6261    3.0726   14.7557 H         1 C01         0.0231
     49 H18        19.8923    2.5610   13.5889 H         1 C01         0.0231
     50 H19        19.4368    8.2357   17.4948 H         1 C01         0.0966
     51 H20        17.8877    8.5155   15.9247 H         1 C01         0.0543
     52 H21        16.0300    7.7559   14.4968 H         1 C01         0.0540
     53 H22        16.3980    3.7590   16.1167 H         1 C01         0.0540
     54 H23        18.2918    4.5281   17.5759 H         1 C01         0.0543
     55 H24        14.3897    6.2513   13.9653 H         1 C01         0.0443
     56 H25        14.4956    4.3523   12.3852 H         1 C01         0.0253
     57 H26        15.9073    3.6965   13.2816 H         1 C01         0.0253
     58 H27        16.0320    5.2810   12.4445 H         1 C01         0.0253
     59 H28        13.5248    5.0074   15.9383 H         1 C01         0.0253
     60 H29        14.2964    3.5090   15.3170 H         1 C01         0.0253
     61 H30        12.9773    4.2935   14.3835 H         1 C01         0.0253
@<TRIPOS>BOND
     1    1    2 ar 
     2    1    6 ar 
     3    1   15 1  
     4    2    3 ar 
     5    2   18 1  
     6    3    4 ar 
     7    3   12 1  
     8    4    5 ar 
     9    4    7 1  
    10    5    6 ar 
    11    5    9 1  
    12    7    8 1  
    13    8    9 am 
    14    8   10 1  
    15    9   11 2  
    16   12   13 1  
    17   13   14 1  
    18   15   16 1  
    19   16   17 1  
    20   18   19 1  
    21   19   20 1  
    22   19   21 1  
    23   20   22 ar 
    24   20   26 ar 
    25   21   30 ar 
    26   21   31 ar 
    27   22   23 ar 
    28   23   24 ar 
    29   24   25 ar 
    30   24   27 1  
    31   25   26 ar 
    32   27   28 1  
    33   27   29 1  
    34    6   32 1  
    35   10   33 1  
    36   10   34 1  
    37   10   35 1  
    38   12   36 1  
    39   12   37 1  
    40   13   38 1  
    41   13   39 1  
    42   14   40 1  
    43   14   41 1  
    44   14   42 1  
    45   15   43 1  
    46   15   44 1  
    47   16   45 1  
    48   16   46 1  
    49   17   47 1  
    50   17   48 1  
    51   17   49 1  
    52   19   50 1  
    53   22   51 1  
    54   23   52 1  
    55   25   53 1  
    56   26   54 1  
    57   27   55 1  
    58   28   56 1  
    59   28   57 1  
    60   28   58 1  
    61   29   59 1  
    62   29   60 1  
    63   29   61 1  
@<TRIPOS>SUBSTRUCTURE
     1 C01         1

