### 
### Created by X-TOOL on Fri Sep 26 17:34:31 2014
### 

@<TRIPOS>MOLECULE
1zfk_ligand
   39    40     1     0     0
SMALL
GAST_HUCK


@<TRIPOS>ATOM
      1 S1         15.3260    2.6930   16.8080 S.o2      1 NR2         0.0590
      2 N24        15.8140    1.4320   16.1690 N.am      1 NR2        -0.2626
      3 O23        13.8840    2.7660   16.6740 O.2       1 NR2        -0.1524
      4 O22        15.8670    2.8480   18.1570 O.2       1 NR2        -0.1524
      5 C2         16.0050    4.0270   15.8870 C.ar      1 NR2         0.0922
      6 C7         15.0780    5.0080   15.4720 C.ar      1 NR2        -0.0492
      7 C6         15.4930    6.1140   14.7390 C.ar      1 NR2        -0.0397
      8 C5         16.8410    6.2730   14.3990 C.ar      1 NR2         0.0667
      9 N8         17.1920    7.4120   13.6450 N.am      1 NR2        -0.2183
     10 C9         18.4190    7.7630   13.2110 C.2       1 NR2         0.3079
     11 O13        19.4390    7.1170   13.4110 O.2       1 NR2        -0.3892
     12 N10        18.4470    8.9120   12.5130 N.am      1 NR2        -0.1353
     13 S11        19.5890    9.4400   11.6970 S.o2      1 NR2         0.0884
     14 O15        20.5580    8.4430   11.3160 O.2       1 NR2        -0.1466
     15 O14        19.0170   10.2960   10.6640 O.2       1 NR2        -0.1466
     16 C12        20.3370   10.4740   12.9200 C.ar      1 NR2         0.1060
     17 C20        21.7280   10.4020   13.0850 C.ar      1 NR2        -0.0416
     18 C19        22.3430   11.2100   14.0450 C.ar      1 NR2        -0.0587
     19 C18        21.5680   12.0710   14.8240 C.ar      1 NR2        -0.0460
     20 C21        22.2280   12.9570   15.8690 C.3       1 NR2        -0.0311
     21 C17        20.1890   12.1340   14.6520 C.ar      1 NR2        -0.0587
     22 C16        19.5730   11.3310   13.6950 C.ar      1 NR2        -0.0416
     23 C4         17.7530    5.2980   14.8040 C.ar      1 NR2        -0.0397
     24 C3         17.3440    4.1790   15.5490 C.ar      1 NR2        -0.0492
     25 H1         15.5231    1.1963   15.2417 H         1 NR2         0.1633
     26 H2         16.4312    0.8245   16.6690 H         1 NR2         0.1633
     27 H3         14.0305    4.8974   15.7280 H         1 NR2         0.0596
     28 H4         14.7679    6.8577   14.4290 H         1 NR2         0.0501
     29 H5         16.4441    8.0308   13.4045 H         1 NR2         0.2256
     30 H6         17.6197    9.4731   12.5410 H         1 NR2         0.2146
     31 H7         22.3187    9.7279   12.4753 H         1 NR2         0.0619
     32 H8         23.4172   11.1684   14.1842 H         1 NR2         0.0557
     33 H9         21.4603   13.5595   16.3765 H         1 NR2         0.0391
     34 H10        22.9530   13.6238   15.3794 H         1 NR2         0.0391
     35 H11        22.7480   12.3286   16.6070 H         1 NR2         0.0391
     36 H12        19.5955   12.8062   15.2611 H         1 NR2         0.0557
     37 H13        18.4988   11.3766   13.5571 H         1 NR2         0.0619
     38 H14        18.7984    5.4059   14.5385 H         1 NR2         0.0501
     39 H15        18.0708    3.4368   15.8590 H         1 NR2         0.0596
@<TRIPOS>BOND
     1    1    2 am 
     2    1    3 2  
     3    1    4 2  
     4    1    5 1  
     5    5    6 ar 
     6    5   24 ar 
     7    6    7 ar 
     8    7    8 ar 
     9    8    9 1  
    10    8   23 ar 
    11    9   10 am 
    12   10   11 2  
    13   10   12 am 
    14   12   13 am 
    15   13   14 2  
    16   13   15 2  
    17   13   16 1  
    18   16   17 ar 
    19   16   22 ar 
    20   17   18 ar 
    21   18   19 ar 
    22   19   20 1  
    23   19   21 ar 
    24   21   22 ar 
    25   23   24 ar 
    26    2   25 1  
    27    2   26 1  
    28    6   27 1  
    29    7   28 1  
    30    9   29 1  
    31   12   30 1  
    32   17   31 1  
    33   18   32 1  
    34   20   33 1  
    35   20   34 1  
    36   20   35 1  
    37   21   36 1  
    38   22   37 1  
    39   23   38 1  
    40   24   39 1  
@<TRIPOS>SUBSTRUCTURE
     1 NR2         1

