### 
### Created by X-TOOL on Mon Sep 10 21:12:53 2018
### 

@<TRIPOS>MOLECULE
1zfq_ligand
   20    21     1     0     0
SMALL
GAST_HUCK


@<TRIPOS>ATOM
      1 O1         18.0710    8.7120   12.7370 O.3       1 ZEC        -0.3361
      2 C2         17.9010    7.5460   13.4830 C.ar      1 ZEC         0.0809
      3 C7         16.6030    7.1130   13.7980 C.ar      1 ZEC        -0.0191
      4 C6         16.5510    5.9300   14.5420 C.ar      1 ZEC         0.0509
      5 S8         15.0360    5.2040   15.0220 S.3       1 ZEC         0.0259
      6 C9         16.0860    3.9480   15.8060 C.2       1 ZEC         0.2500
      7 S11        15.2540    2.6620   16.6940 S.o2      1 ZEC         0.1041
      8 N14        15.7100    1.3510   16.1280 N.am      1 ZEC        -0.2548
      9 O13        13.8400    2.8810   16.4290 O.2       1 ZEC        -0.1431
     10 O12        15.7060    2.8040   18.0740 O.2       1 ZEC        -0.1431
     11 N10        17.3380    4.1070   15.6660 N.2       1 ZEC        -0.2771
     12 C5         17.6650    5.2240   14.9590 C.ar      1 ZEC         0.0296
     13 C4         18.9500    5.6580   14.6570 C.ar      1 ZEC        -0.0596
     14 C3         19.0230    6.8330   13.9070 C.ar      1 ZEC        -0.0394
     15 H1         18.9985    8.8712   12.6073 H         1 ZEC         0.2473
     16 H2         15.7141    7.6515   13.4898 H         1 ZEC         0.0487
     17 H3         15.3513    0.4944   16.4989 H         1 ZEC         0.1640
     18 H4         16.3729    1.3330   15.3795 H         1 ZEC         0.1640
     19 H5         19.8343    5.1214   14.9813 H         1 ZEC         0.0565
     20 H6         20.0030    7.2115   13.6399 H         1 ZEC         0.0502
@<TRIPOS>BOND
     1    1    2 1  
     2    2    3 ar 
     3    2   14 ar 
     4    3    4 ar 
     5    4    5 1  
     6    4   12 ar 
     7    5    6 1  
     8    6    7 1  
     9    6   11 2  
    10    7    8 am 
    11    7    9 2  
    12    7   10 2  
    13   11   12 1  
    14   12   13 ar 
    15   13   14 ar 
    16    1   15 1  
    17    3   16 1  
    18    8   17 1  
    19    8   18 1  
    20   13   19 1  
    21   14   20 1  
@<TRIPOS>SUBSTRUCTURE
     1 ZEC         1

