### 
### Created by X-TOOL on Mon Sep 10 21:12:52 2018
### 

@<TRIPOS>MOLECULE
1zgb_ligand
   82    86     1     0     0
SMALL
GAST_HUCK


@<TRIPOS>ATOM
      1 C1         -3.1010   59.6420   74.6460 C.3       1 A1E        -0.0310
      2 C2         -2.0300   60.6480   74.2690 C.3       1 A1E        -0.0041
      3 C3         -1.0720   60.0800   73.1650 C.3       1 A1E        -0.0032
      4 C4         -0.5640   58.6720   73.5430 C.2       1 A1E         0.0225
      5 C5         -1.2260   57.9290   74.5080 C.2       1 A1E         0.0883
      6 C6         -2.4440   58.4090   75.2790 C.3       1 A1E         0.0189
      7 C7          0.6260   58.0220   72.8830 C.2       1 A1E        -0.0779
      8 C8          1.0540   56.7480   73.2200 C.2       1 A1E        -0.0278
      9 C9          0.2850   56.0030   74.2960 C.2       1 A1E         0.1811
     10 N10        -0.7790   56.6730   74.8270 N.am      1 A1E        -0.2230
     11 O11         0.5390   54.9060   74.6920 O.2       1 A1E        -0.4310
     12 N12         0.0400   61.0700   73.2430 N.4       1 A1E         0.2346
     13 C13        -0.0680   62.2860   72.3830 C.3       1 A1E        -0.0329
     14 C14         0.9870   62.0150   71.3460 C.3       1 A1E        -0.0126
     15 C15         0.6380   62.6540   70.0350 C.3       1 A1E        -0.0483
     16 C16         1.6990   62.3090   68.9910 C.3       1 A1E        -0.0529
     17 C17         3.1210   62.4740   69.5480 C.3       1 A1E        -0.0531
     18 C18         3.6790   63.7740   69.0100 C.3       1 A1E        -0.0531
     19 C19         3.2800   65.0280   69.8120 C.3       1 A1E        -0.0530
     20 C20         2.2410   65.8630   69.0450 C.3       1 A1E        -0.0512
     21 C21         2.7180   66.3770   67.6860 C.3       1 A1E        -0.0328
     22 C22         1.7260   67.4350   67.2000 C.3       1 A1E         0.0270
     23 N23         2.2130   68.4110   66.2220 N.pl3     1 A1E        -0.3142
     24 C24         3.5210   68.6620   65.7320 C.ar      1 A1E         0.0689
     25 C25         4.5280   69.2680   66.6260 C.ar      1 A1E         0.0197
     26 C26         5.7970   69.5770   66.0220 C.ar      1 A1E         0.0179
     27 N27         6.0700   69.3050   64.6510 N.ar      1 A1E        -0.3281
     28 C28         5.1550   68.7420   63.8630 C.ar      1 A1E         0.0105
     29 C29         3.8300   68.3860   64.3510 C.ar      1 A1E         0.0054
     30 C30         4.4250   69.6100   68.0480 C.ar      1 A1E        -0.0528
     31 C31         5.4660   70.1970   68.7720 C.ar      1 A1E        -0.0632
     32 C32         6.7110   70.4990   68.1320 C.ar      1 A1E        -0.0640
     33 C33         6.8660   70.1920   66.7800 C.ar      1 A1E        -0.0521
     34 C34         5.6230   68.5170   62.4010 C.3       1 A1E        -0.0081
     35 C35         4.4170   68.2910   61.4350 C.3       1 A1E        -0.0400
     36 C36         3.4630   67.2460   62.0080 C.3       1 A1E        -0.0439
     37 C37         2.8360   67.7540   63.3560 C.3       1 A1E        -0.0210
     38 H1         -3.6544   59.3404   73.7445 H         1 A1E         0.0298
     39 H2         -3.7952   60.0983   75.3670 H         1 A1E         0.0298
     40 H3         -1.4389   60.8931   75.1637 H         1 A1E         0.0333
     41 H4         -2.5138   61.5595   73.8881 H         1 A1E         0.0333
     42 H5         -1.5461   60.0600   72.1726 H         1 A1E         0.0913
     43 H6         -3.1828   57.5947   75.3110 H         1 A1E         0.0511
     44 H7         -2.1337   58.6631   76.3033 H         1 A1E         0.0511
     45 H8          1.1675   58.5728   72.1153 H         1 A1E         0.0600
     46 H9          1.9143   56.2958   72.7288 H         1 A1E         0.0298
     47 H10        -1.2947   56.1892   75.5341 H         1 A1E         0.2526
     48 H11         0.8900   60.5923   72.9874 H         1 A1E         0.2022
     49 H12         0.1036   61.3800   74.2000 H         1 A1E         0.2022
     50 H13         0.1534   63.2012   72.9516 H         1 A1E         0.0814
     51 H14        -1.0662   62.3692   71.9283 H         1 A1E         0.0814
     52 H15         1.0775   60.9282   71.2022 H         1 A1E         0.0317
     53 H16         1.9475   62.4197   71.6975 H         1 A1E         0.0317
     54 H17         0.5922   63.7457   70.1618 H         1 A1E         0.0267
     55 H18        -0.3407   62.2827   69.6971 H         1 A1E         0.0267
     56 H19         1.5763   62.9756   68.1246 H         1 A1E         0.0265
     57 H20         1.5599   61.2652   68.6732 H         1 A1E         0.0265
     58 H21         3.7507   61.6330   69.2223 H         1 A1E         0.0265
     59 H22         3.0913   62.5057   70.6471 H         1 A1E         0.0265
     60 H23         3.3205   63.8994   67.9777 H         1 A1E         0.0265
     61 H24         4.7766   63.7019   69.0108 H         1 A1E         0.0265
     62 H25         4.1753   65.6419   69.9894 H         1 A1E         0.0265
     63 H26         2.8514   64.7174   70.7763 H         1 A1E         0.0265
     64 H27         1.9720   66.7307   69.6652 H         1 A1E         0.0266
     65 H28         1.3504   65.2382   68.8825 H         1 A1E         0.0266
     66 H29         2.7580   65.5458   66.9666 H         1 A1E         0.0285
     67 H30         3.7184   66.8231   67.7868 H         1 A1E         0.0285
     68 H31         1.3806   67.9945   68.0818 H         1 A1E         0.0520
     69 H32         0.8754   66.9066   66.7446 H         1 A1E         0.0520
     70 H33         1.4826   69.0175   65.8225 H         1 A1E         0.1815
     71 H34         3.4953   69.3969   68.5631 H         1 A1E         0.0636
     72 H35         5.3306   70.4249   69.8231 H         1 A1E         0.0585
     73 H36         7.5196   70.9585   68.6889 H         1 A1E         0.0621
     74 H37         7.8049   70.4183   66.2877 H         1 A1E         0.0590
     75 H38         6.2762   67.6325   62.3682 H         1 A1E         0.0453
     76 H39         6.1859   69.4011   62.0671 H         1 A1E         0.0453
     77 H40         4.7929   67.9431   60.4615 H         1 A1E         0.0292
     78 H41         3.8769   69.2400   61.3017 H         1 A1E         0.0292
     79 H42         4.0167   66.3141   62.1949 H         1 A1E         0.0284
     80 H43         2.6576   67.0551   61.2835 H         1 A1E         0.0284
     81 H44         2.0736   68.5086   63.1125 H         1 A1E         0.0386
     82 H45         2.3580   66.8966   63.8522 H         1 A1E         0.0386
@<TRIPOS>BOND
     1    1    2 1  
     2    1    6 1  
     3    2    3 1  
     4    3    4 1  
     5    3   12 1  
     6    4    5 2  
     7    4    7 1  
     8    5    6 1  
     9    5   10 1  
    10    7    8 2  
    11    8    9 1  
    12    9   10 am 
    13    9   11 2  
    14   12   13 1  
    15   13   14 1  
    16   14   15 1  
    17   15   16 1  
    18   16   17 1  
    19   17   18 1  
    20   18   19 1  
    21   19   20 1  
    22   20   21 1  
    23   21   22 1  
    24   22   23 1  
    25   23   24 1  
    26   24   25 ar 
    27   24   29 ar 
    28   25   26 ar 
    29   25   30 ar 
    30   26   27 ar 
    31   26   33 ar 
    32   27   28 ar 
    33   28   29 ar 
    34   28   34 1  
    35   29   37 1  
    36   30   31 ar 
    37   31   32 ar 
    38   32   33 ar 
    39   34   35 1  
    40   35   36 1  
    41   36   37 1  
    42    1   38 1  
    43    1   39 1  
    44    2   40 1  
    45    2   41 1  
    46    3   42 1  
    47    6   43 1  
    48    6   44 1  
    49    7   45 1  
    50    8   46 1  
    51   10   47 1  
    52   12   48 1  
    53   12   49 1  
    54   13   50 1  
    55   13   51 1  
    56   14   52 1  
    57   14   53 1  
    58   15   54 1  
    59   15   55 1  
    60   16   56 1  
    61   16   57 1  
    62   17   58 1  
    63   17   59 1  
    64   18   60 1  
    65   18   61 1  
    66   19   62 1  
    67   19   63 1  
    68   20   64 1  
    69   20   65 1  
    70   21   66 1  
    71   21   67 1  
    72   22   68 1  
    73   22   69 1  
    74   23   70 1  
    75   30   71 1  
    76   31   72 1  
    77   32   73 1  
    78   33   74 1  
    79   34   75 1  
    80   34   76 1  
    81   35   77 1  
    82   35   78 1  
    83   36   79 1  
    84   36   80 1  
    85   37   81 1  
    86   37   82 1  
@<TRIPOS>SUBSTRUCTURE
     1 A1E         1

