### 
### Created by X-TOOL on Mon Sep 10 21:12:53 2018
### 

@<TRIPOS>MOLECULE
1zge_ligand
   19    19     1     0     0
SMALL
GAST_HUCK


@<TRIPOS>ATOM
      1 S1         15.3140    2.7660   16.5040 S.o2      1 SDA         0.0601
      2 N13        15.7860    1.5240   15.8390 N.am      1 SDA        -0.2623
      3 O12        15.9150    2.8960   17.8310 O.2       1 SDA        -0.1522
      4 O11        13.8620    2.8830   16.4370 O.2       1 SDA        -0.1522
      5 C2         16.0230    4.1120   15.5850 C.ar      1 SDA         0.0956
      6 C7         17.3890    4.2370   15.3280 C.ar      1 SDA        -0.0329
      7 C6         17.9040    5.3060   14.6060 C.ar      1 SDA         0.0587
      8 CL8        19.5980    5.5600   14.2360 Cl        1 SDA        -0.0816
      9 C5         17.0380    6.2910   14.1190 C.ar      1 SDA         0.0640
     10 N10        17.5580    7.3750   13.3800 N.pl3     1 SDA        -0.3354
     11 C4         15.6850    6.1790   14.3630 C.ar      1 SDA         0.0587
     12 CL9        14.6580    7.4130   13.7360 Cl        1 SDA        -0.0816
     13 C3         15.1550    5.1100   15.0860 C.ar      1 SDA        -0.0329
     14 H1         16.7631    1.3133   15.8088 H         1 SDA         0.1633
     15 H2         15.1266    0.8987   15.4216 H         1 SDA         0.1633
     16 H3         18.0671    3.4786   15.7023 H         1 SDA         0.0610
     17 H4         18.5713    7.4420   13.2078 H         1 SDA         0.1727
     18 H5         16.9242    8.0992   13.0129 H         1 SDA         0.1727
     19 H6         14.0876    5.0453   15.2635 H         1 SDA         0.0610
@<TRIPOS>BOND
     1    1    2 am 
     2    1    3 2  
     3    1    4 2  
     4    1    5 1  
     5    5    6 ar 
     6    5   13 ar 
     7    6    7 ar 
     8    7    8 1  
     9    7    9 ar 
    10    9   10 1  
    11    9   11 ar 
    12   11   12 1  
    13   11   13 ar 
    14    2   14 1  
    15    2   15 1  
    16    6   16 1  
    17   10   17 1  
    18   10   18 1  
    19   13   19 1  
@<TRIPOS>SUBSTRUCTURE
     1 SDA         1

