### 
### Created by X-TOOL on Mon Sep 10 21:12:53 2018
### 

@<TRIPOS>MOLECULE
1zgi_ligand
   56    60     1     0     0
SMALL
GAST_HUCK


@<TRIPOS>ATOM
      1 C1         22.3230  -14.2910   25.6190 C.3       1 382        -0.0124
      2 C2         22.0110  -14.9860   24.2840 C.3       1 382        -0.0332
      3 N3         21.0480  -16.1020   24.5080 N.4       1 382         0.2335
      4 C4         19.7680  -15.6610   25.1350 C.3       1 382         0.0440
      5 C5         20.0600  -15.0240   26.4980 C.3       1 382        -0.0039
      6 C6         21.0240  -13.8280   26.3050 C.3       1 382        -0.0430
      7 C15        18.7190  -16.8040   25.1620 C.3       1 382         0.3090
      8 F17        19.2670  -18.0340   25.3410 F         1 382        -0.1973
      9 F18        17.8050  -16.5990   26.1480 F         1 382        -0.1973
     10 C19        18.0010  -16.8490   23.8070 C.3       1 382         0.0954
     11 N20        17.4150  -15.5460   23.4030 N.pl3     1 382        -0.3041
     12 C23        17.8610  -14.8050   22.2800 C.ar      1 382         0.1131
     13 C24        17.0050  -13.8380   21.6540 C.ar      1 382         0.0853
     14 C25        17.4730  -13.1050   20.5270 C.ar      1 382         0.1493
     15 C26        18.8440  -13.3810   20.0340 C.ar      1 382        -0.0195
     16 C27        19.7160  -14.3780   20.6870 C.ar      1 382        -0.0211
     17 N28        19.1710  -15.0470   21.8000 N.ar      1 382        -0.3059
     18 N31        15.7100  -13.3970   21.8900 N.2       1 382        -0.2950
     19 C32        15.4580  -12.4320   20.9190 C.2       1 382         0.1953
     20 O33        16.5440  -12.2110   20.0760 O.3       1 382        -0.2125
     21 C34        14.1350  -11.6760   20.7150 C.3       1 382         0.0746
     22 C36        13.0240  -11.7240   21.7700 C.ar      1 382         0.0163
     23 C39        12.9160  -10.4860   22.5640 C.ar      1 382        -0.0604
     24 C40        11.8770  -10.3870   23.5960 C.ar      1 382        -0.0745
     25 C41        10.9660  -11.5370   23.7640 C.ar      1 382        -0.0719
     26 C42        11.0880  -12.7730   22.9610 C.ar      1 382        -0.0303
     27 C43        12.1470  -12.8950   21.9490 C.ar      1 382         0.1229
     28 N48        12.3340  -14.1540   21.2840 N.pl3     1 382        -0.1360
     29 N49        12.6160  -15.3380   21.9060 N.2       1 382        -0.1786
     30 C50        12.6910  -16.3250   20.9570 C.2       1 382         0.0631
     31 N51        12.4480  -15.7450   19.7450 N.2       1 382        -0.2855
     32 C52        12.2270  -14.4050   19.9490 C.2       1 382         0.1420
     33 H1         22.9638  -13.4170   25.4306 H         1 382         0.0317
     34 H2         22.8492  -14.9959   26.2794 H         1 382         0.0317
     35 H3         22.9411  -15.3870   23.8550 H         1 382         0.0814
     36 H4         21.5701  -14.2577   23.5875 H         1 382         0.0814
     37 H5         21.4820  -16.7826   25.1117 H         1 382         0.2018
     38 H6         20.8385  -16.5271   23.6184 H         1 382         0.2018
     39 H7         19.3461  -14.8691   24.4987 H         1 382         0.0911
     40 H8         20.5258  -15.7688   27.1600 H         1 382         0.0322
     41 H9         19.1205  -14.6703   26.9477 H         1 382         0.0322
     42 H10        20.5356  -13.0660   25.6798 H         1 382         0.0269
     43 H11        21.2668  -13.3960   27.2871 H         1 382         0.0269
     44 H12        17.1913  -17.5912   23.8666 H         1 382         0.0579
     45 H13        18.7257  -17.1577   23.0392 H         1 382         0.0579
     46 H14        16.6447  -15.1607   23.9679 H         1 382         0.1805
     47 H15        19.2154  -12.8374   19.1728 H         1 382         0.0532
     48 H16        20.7187  -14.5833   20.3299 H         1 382         0.0673
     49 H17        13.6965  -12.0604   19.7823 H         1 382         0.0691
     50 H18        14.3980  -10.6156   20.5868 H         1 382         0.0691
     51 H19        13.5952   -9.6598   22.3877 H         1 382         0.0545
     52 H20        11.7818   -9.5009   24.2131 H         1 382         0.0544
     53 H21        10.1771  -11.4728   24.5047 H         1 382         0.0547
     54 H22        10.3946  -13.5911   23.1192 H         1 382         0.0570
     55 H23        12.9050  -17.3775   21.1369 H         1 382         0.0867
     56 H24        12.0046  -13.6698   19.1770 H         1 382         0.1372
@<TRIPOS>BOND
     1    1    2 1  
     2    1    6 1  
     3    2    3 1  
     4    3    4 1  
     5    4    5 1  
     6    4    7 1  
     7    5    6 1  
     8    7    8 1  
     9    7    9 1  
    10    7   10 1  
    11   10   11 1  
    12   11   12 1  
    13   12   13 ar 
    14   12   17 ar 
    15   13   14 ar 
    16   13   18 1  
    17   14   15 ar 
    18   14   20 1  
    19   15   16 ar 
    20   16   17 ar 
    21   18   19 2  
    22   19   20 1  
    23   19   21 1  
    24   21   22 1  
    25   22   23 ar 
    26   22   27 ar 
    27   23   24 ar 
    28   24   25 ar 
    29   25   26 ar 
    30   26   27 ar 
    31   27   28 1  
    32   28   29 1  
    33   28   32 1  
    34   29   30 2  
    35   30   31 1  
    36   31   32 2  
    37    1   33 1  
    38    1   34 1  
    39    2   35 1  
    40    2   36 1  
    41    3   37 1  
    42    3   38 1  
    43    4   39 1  
    44    5   40 1  
    45    5   41 1  
    46    6   42 1  
    47    6   43 1  
    48   10   44 1  
    49   10   45 1  
    50   11   46 1  
    51   15   47 1  
    52   16   48 1  
    53   21   49 1  
    54   21   50 1  
    55   23   51 1  
    56   24   52 1  
    57   25   53 1  
    58   26   54 1  
    59   30   55 1  
    60   32   56 1  
@<TRIPOS>SUBSTRUCTURE
     1 382         1

