### 
### Created by X-TOOL on Mon Sep 10 21:12:52 2018
### 

@<TRIPOS>MOLECULE
1zgv_ligand
   46    48     1     0     0
SMALL
GAST_HUCK


@<TRIPOS>ATOM
      1 C1         10.7320  -12.5100   23.7680 C.ar      1 501        -0.0443
      2 C2         11.6150  -12.6110   22.6210 C.ar      1 501         0.0142
      3 C3         12.5060  -11.5690   22.2370 C.ar      1 501         0.1265
      4 C4         12.5770  -10.3810   22.9890 C.ar      1 501         0.0004
      5 C5         11.7790  -10.2680   24.1490 C.ar      1 501         0.0467
      6 C6         10.8750  -11.3150   24.5610 C.ar      1 501        -0.0440
      7 N10        13.3400  -11.7050   21.0830 N.pl3     1 501        -0.1784
      8 C11        14.6110  -12.3990   21.2230 C.2       1 501         0.3415
      9 N12        15.7110  -12.1700   20.4040 N.pl3     1 501        -0.1645
     10 C13        16.6100  -13.0750   20.8400 C.ar      1 501         0.2418
     11 N14        16.1280  -13.7970   21.8780 N.ar      1 501        -0.1796
     12 N15        14.9310  -13.4270   22.1280 N.2       1 501        -0.1216
     13 N16        17.8630  -13.1950   20.3310 N.ar      1 501        -0.2452
     14 C17        18.7030  -14.1750   20.8500 C.ar      1 501         0.0323
     15 C18        18.3090  -15.0510   21.9870 C.ar      1 501         0.0135
     16 C19        16.9750  -14.8270   22.5700 C.ar      1 501         0.1506
     17 N21        16.5790  -15.6550   23.7440 N.pl3     1 501        -0.2896
     18 C22        17.7690  -16.2390   24.4090 C.3       1 501         0.0355
     19 C23        18.4020  -15.1740   25.3320 C.3       1 501        -0.0312
     20 C26        19.8840  -15.4410   25.6620 C.3       1 501        -0.0539
     21 C29        20.4920  -14.3270   26.4940 C.3       1 501        -0.0652
     22 C37        20.0680  -14.3670   20.1790 C.3       1 501        -0.0097
     23 CL41       11.9740   -8.7900   25.0390 Cl        1 501        -0.0707
     24 C42        11.6720  -13.8410   21.8100 C.3       1 501        -0.0202
     25 H1         10.0120  -13.2826   24.0124 H         1 501         0.0585
     26 H2         13.2297   -9.5708   22.6845 H         1 501         0.0653
     27 H3         10.2998  -11.2018   25.4728 H         1 501         0.0686
     28 H4         13.0474  -11.3203   20.1734 H         1 501         0.2671
     29 H5         15.8139  -11.4777   19.6484 H         1 501         0.2472
     30 H6         18.9730  -15.8183   22.3683 H         1 501         0.0543
     31 H7         15.6074  -15.8022   24.0527 H         1 501         0.1969
     32 H8         18.5007  -16.5503   23.6490 H         1 501         0.0544
     33 H9         17.4667  -17.1119   25.0062 H         1 501         0.0544
     34 H10        17.8353  -15.1504   26.2745 H         1 501         0.0286
     35 H11        18.3279  -14.1955   24.8349 H         1 501         0.0286
     36 H12        20.4469  -15.5289   24.7210 H         1 501         0.0263
     37 H13        19.9583  -16.3841   26.2232 H         1 501         0.0263
     38 H14        21.5463  -14.5600   26.7042 H         1 501         0.0230
     39 H15        19.9410  -14.2344   27.4415 H         1 501         0.0230
     40 H16        20.4296  -13.3791   25.9393 H         1 501         0.0230
     41 H17        20.6190  -15.1692   20.6917 H         1 501         0.0470
     42 H18        20.6419  -13.4306   20.2407 H         1 501         0.0470
     43 H19        19.9226  -14.6390   19.1232 H         1 501         0.0470
     44 H20        10.9447  -14.5696   22.1974 H         1 501         0.0428
     45 H21        12.6839  -14.2690   21.8636 H         1 501         0.0428
     46 H22        11.4299  -13.6021   20.7639 H         1 501         0.0428
@<TRIPOS>BOND
     1    1    2 ar 
     2    1    6 ar 
     3    2    3 ar 
     4    2   24 1  
     5    3    4 ar 
     6    3    7 1  
     7    4    5 ar 
     8    5    6 ar 
     9    5   23 1  
    10    7    8 1  
    11    8    9 1  
    12    8   12 2  
    13    9   10 1  
    14   10   11 ar 
    15   10   13 ar 
    16   11   12 1  
    17   11   16 ar 
    18   13   14 ar 
    19   14   15 ar 
    20   14   22 1  
    21   15   16 ar 
    22   16   17 1  
    23   17   18 1  
    24   18   19 1  
    25   19   20 1  
    26   20   21 1  
    27    1   25 1  
    28    4   26 1  
    29    6   27 1  
    30    7   28 1  
    31    9   29 1  
    32   15   30 1  
    33   17   31 1  
    34   18   32 1  
    35   18   33 1  
    36   19   34 1  
    37   19   35 1  
    38   20   36 1  
    39   20   37 1  
    40   21   38 1  
    41   21   39 1  
    42   21   40 1  
    43   22   41 1  
    44   22   42 1  
    45   22   43 1  
    46   24   44 1  
    47   24   45 1  
    48   24   46 1  
@<TRIPOS>SUBSTRUCTURE
     1 501         1

