### 
### Created by X-TOOL on Mon Sep 10 21:12:53 2018
### 

@<TRIPOS>MOLECULE
1zhy_ligand
   74    77     1     0     0
SMALL
GAST_HUCK


@<TRIPOS>ATOM
      1 C1         57.7400   36.0540   33.4270 C.3       1 CLR        -0.0900
      2 C2         57.7820   36.1530   34.9560 C.3       1 CLR        -0.0375
      3 C3         56.3760   36.0200   35.5470 C.3       1 CLR         0.0617
      4 C4         55.7960   34.6540   35.1730 C.3       1 CLR        -0.0021
      5 C5         55.8600   34.4410   33.6580 C.2       1 CLR        -0.0646
      6 C6         54.7230   34.0100   32.9840 C.2       1 CLR        -0.0129
      7 C7         54.6060   33.8010   31.6150 C.3       1 CLR         0.0232
      8 C8         55.9620   33.7420   30.9020 C.3       1 CLR        -0.0217
      9 C9         56.9070   34.8450   31.3980 C.3       1 CLR        -0.0730
     10 C10        57.1660   34.7310   32.9070 C.3       1 CLR        -0.0669
     11 C11        58.2000   34.8910   30.5720 C.3       1 CLR        -0.0615
     12 C12        57.9480   34.9520   29.0590 C.3       1 CLR        -0.0480
     13 C13        57.0630   33.7850   28.6110 C.3       1 CLR        -0.0256
     14 C14        55.7530   33.8960   29.3930 C.3       1 CLR        -0.0290
     15 C15        54.8930   32.8320   28.7130 C.3       1 CLR        -0.0489
     16 C16        55.1270   33.1900   27.2420 C.3       1 CLR        -0.0492
     17 C17        56.4720   33.9260   27.2040 C.3       1 CLR        -0.0328
     18 C18        57.7540   32.4310   28.8240 C.3       1 CLR        -0.0590
     19 C19        58.1370   33.5840   33.2050 C.3       1 CLR        -0.1044
     20 C20        57.3590   33.4520   26.0460 C.3       1 CLR        -0.0405
     21 C21        58.6160   34.3190   25.9510 C.3       1 CLR        -0.0621
     22 C22        56.5810   33.5110   24.7270 C.3       1 CLR        -0.0502
     23 C23        57.3250   32.8640   23.5550 C.3       1 CLR        -0.0526
     24 C24        56.5200   32.9270   22.2530 C.3       1 CLR        -0.0507
     25 C25        55.2910   32.0110   22.2620 C.3       1 CLR        -0.0467
     26 C26        54.6480   31.9210   20.8760 C.3       1 CLR        -0.0627
     27 C27        54.2580   32.4620   23.2970 C.3       1 CLR        -0.0627
     28 O1         56.4380   36.1370   36.9710 O.3       1 CLR        -0.3900
     29 H1         58.7658   36.1609   33.0444 H         1 CLR         0.0105
     30 H2         57.1180   36.8762   33.0434 H         1 CLR         0.0105
     31 H3         58.2033   37.1277   35.2431 H         1 CLR         0.0279
     32 H4         58.4177   35.3476   35.3525 H         1 CLR         0.0279
     33 H5         55.7324   36.8151   35.1426 H         1 CLR         0.0613
     34 H6         54.7475   34.6036   35.5016 H         1 CLR         0.0428
     35 H7         56.3758   33.8650   35.6743 H         1 CLR         0.0428
     36 H8         53.8374   33.8173   33.5878 H         1 CLR         0.1467
     37 H9         54.0181   34.6244   31.1833 H         1 CLR         0.0680
     38 H10        54.0806   32.8490   31.4490 H         1 CLR         0.0680
     39 H11        56.4239   32.7643   31.1038 H         1 CLR         0.0348
     40 H12        56.3938   35.8045   31.2367 H         1 CLR         0.0147
     41 H13        58.7882   33.9880   30.7925 H         1 CLR         0.0256
     42 H14        58.7723   35.7827   30.8675 H         1 CLR         0.0256
     43 H15        58.9109   34.8989   28.5299 H         1 CLR         0.0270
     44 H16        57.4469   35.9001   28.8142 H         1 CLR         0.0270
     45 H17        55.2996   34.8846   29.2284 H         1 CLR         0.0312
     46 H18        53.8330   32.9266   28.9912 H         1 CLR         0.0268
     47 H19        55.2438   31.8156   28.9452 H         1 CLR         0.0268
     48 H20        54.3220   33.8426   26.8731 H         1 CLR         0.0268
     49 H21        55.1708   32.2787   26.6276 H         1 CLR         0.0268
     50 H22        56.2790   34.9948   27.0296 H         1 CLR         0.0309
     51 H23        58.1588   32.3826   29.8457 H         1 CLR         0.0235
     52 H24        58.5739   32.3197   28.0992 H         1 CLR         0.0235
     53 H25        57.0246   31.6204   28.6799 H         1 CLR         0.0235
     54 H26        58.3079   33.5208   34.2898 H         1 CLR         0.0068
     55 H27        59.0928   33.7705   32.6936 H         1 CLR         0.0068
     56 H28        57.7075   32.6372   32.8457 H         1 CLR         0.0068
     57 H29        57.6600   32.4109   26.2341 H         1 CLR         0.0301
     58 H30        59.2416   33.9677   25.1172 H         1 CLR         0.0233
     59 H31        59.1832   34.2467   26.8907 H         1 CLR         0.0233
     60 H32        58.3270   35.3659   25.7767 H         1 CLR         0.0233
     61 H33        56.3915   34.5661   24.4804 H         1 CLR         0.0268
     62 H34        55.6227   32.9884   24.8633 H         1 CLR         0.0268
     63 H35        57.5219   31.8096   23.7991 H         1 CLR         0.0265
     64 H36        58.2794   33.3906   23.4072 H         1 CLR         0.0265
     65 H37        57.1746   32.6266   21.4216 H         1 CLR         0.0268
     66 H38        56.1836   33.9629   22.0990 H         1 CLR         0.0268
     67 H39        55.6302   31.0029   22.5423 H         1 CLR         0.0295
     68 H40        53.7719   31.2573   20.9207 H         1 CLR         0.0232
     69 H41        55.3777   31.5171   20.1588 H         1 CLR         0.0232
     70 H42        54.3322   32.9238   20.5525 H         1 CLR         0.0232
     71 H43        54.7333   32.5223   24.2872 H         1 CLR         0.0232
     72 H44        53.4317   31.7367   23.3305 H         1 CLR         0.0232
     73 H45        53.8665   33.4512   23.0174 H         1 CLR         0.0232
     74 H46        56.9934   35.4499   37.3202 H         1 CLR         0.2100
@<TRIPOS>BOND
     1    1    2 1  
     2    1   10 1  
     3    2    3 1  
     4    3    4 1  
     5    3   28 1  
     6    4    5 1  
     7    5    6 2  
     8    5   10 1  
     9    6    7 1  
    10    7    8 1  
    11    8    9 1  
    12    8   14 1  
    13    9   10 1  
    14    9   11 1  
    15   10   19 1  
    16   11   12 1  
    17   12   13 1  
    18   13   14 1  
    19   13   17 1  
    20   13   18 1  
    21   14   15 1  
    22   15   16 1  
    23   16   17 1  
    24   17   20 1  
    25   20   21 1  
    26   20   22 1  
    27   22   23 1  
    28   23   24 1  
    29   24   25 1  
    30   25   26 1  
    31   25   27 1  
    32    1   29 1  
    33    1   30 1  
    34    2   31 1  
    35    2   32 1  
    36    3   33 1  
    37    4   34 1  
    38    4   35 1  
    39    6   36 1  
    40    7   37 1  
    41    7   38 1  
    42    8   39 1  
    43    9   40 1  
    44   11   41 1  
    45   11   42 1  
    46   12   43 1  
    47   12   44 1  
    48   14   45 1  
    49   15   46 1  
    50   15   47 1  
    51   16   48 1  
    52   16   49 1  
    53   17   50 1  
    54   18   51 1  
    55   18   52 1  
    56   18   53 1  
    57   19   54 1  
    58   19   55 1  
    59   19   56 1  
    60   20   57 1  
    61   21   58 1  
    62   21   59 1  
    63   21   60 1  
    64   22   61 1  
    65   22   62 1  
    66   23   63 1  
    67   23   64 1  
    68   24   65 1  
    69   24   66 1  
    70   25   67 1  
    71   26   68 1  
    72   26   69 1  
    73   26   70 1  
    74   27   71 1  
    75   27   72 1  
    76   27   73 1  
    77   28   74 1  
@<TRIPOS>SUBSTRUCTURE
     1 CLR         1

