### 
### Created by X-TOOL on Mon Sep 10 21:12:52 2018
### 

@<TRIPOS>MOLECULE
1zkl_ligand
   30    31     1     0     0
SMALL
GAST_HUCK


@<TRIPOS>ATOM
      1 N9         -1.6860   49.7990   22.7020 N.2       1 IBM        -0.2860
      2 C8         -1.1130   48.7300   22.0570 C.2       1 IBM         0.0953
      3 N7          0.0490   49.0030   21.5150 N.pl3     1 IBM        -0.2657
      4 C5          0.2530   50.3400   21.8250 C.2       1 IBM         0.1602
      5 C4         -0.8030   50.8420   22.5540 C.2       1 IBM         0.1379
      6 N3         -0.9480   52.1000   23.0310 N.am      1 IBM        -0.1992
      7 C2          0.0880   52.9400   22.7390 C.2       1 IBM         0.3179
      8 N1          1.2000   52.5190   22.0070 N.am      1 IBM        -0.1740
      9 C6          1.2860   51.2260   21.5500 C.2       1 IBM         0.2295
     10 O6          2.2630   50.8540   20.9150 O.2       1 IBM        -0.4007
     11 O2          0.0450   54.0970   23.1420 O.2       1 IBM        -0.3873
     12 C10         2.2750   53.4590   21.7170 C.3       1 IBM         0.0477
     13 C11        -2.1040   52.5110   23.8150 C.3       1 IBM         0.0580
     14 C12        -3.2030   53.0680   22.8920 C.3       1 IBM        -0.0214
     15 C13        -2.8950   54.4580   22.3710 C.3       1 IBM        -0.0604
     16 C14        -3.6230   52.1270   21.7670 C.3       1 IBM        -0.0604
     17 H1         -1.5802   47.7479   22.0012 H         1 IBM         0.1261
     18 H2          0.6661   48.3725   20.9834 H         1 IBM         0.2315
     19 H3          2.0353   54.4376   22.1584 H         1 IBM         0.0539
     20 H4          2.3853   53.5652   20.6277 H         1 IBM         0.0539
     21 H5          3.2158   53.0838   22.1460 H         1 IBM         0.0539
     22 H6         -1.8000   53.2905   24.5290 H         1 IBM         0.0587
     23 H7         -2.4970   51.6432   24.3649 H         1 IBM         0.0587
     24 H8         -4.0909   53.1772   23.5321 H         1 IBM         0.0320
     25 H9         -3.7155   54.7961   21.7211 H         1 IBM         0.0233
     26 H10        -1.9576   54.4347   21.7959 H         1 IBM         0.0233
     27 H11        -2.7885   55.1518   23.2179 H         1 IBM         0.0233
     28 H12        -3.8375   51.1314   22.1827 H         1 IBM         0.0233
     29 H13        -2.8093   52.0494   21.0309 H         1 IBM         0.0233
     30 H14        -4.5250   52.5216   21.2764 H         1 IBM         0.0233
@<TRIPOS>BOND
     1    1    2 2  
     2    1    5 1  
     3    2    3 1  
     4    3    4 1  
     5    4    5 2  
     6    4    9 1  
     7    5    6 1  
     8    6    7 am 
     9    6   13 1  
    10    7    8 am 
    11    7   11 2  
    12    8    9 am 
    13    8   12 1  
    14    9   10 2  
    15   13   14 1  
    16   14   15 1  
    17   14   16 1  
    18    2   17 1  
    19    3   18 1  
    20   12   19 1  
    21   12   20 1  
    22   12   21 1  
    23   13   22 1  
    24   13   23 1  
    25   14   24 1  
    26   15   25 1  
    27   15   26 1  
    28   15   27 1  
    29   16   28 1  
    30   16   29 1  
    31   16   30 1  
@<TRIPOS>SUBSTRUCTURE
     1 IBM         1

