### 
### Created by X-TOOL on Mon Sep 10 21:12:53 2018
### 

@<TRIPOS>MOLECULE
1zkn_ligand
   30    31     1     0     0
SMALL
GAST_HUCK


@<TRIPOS>ATOM
      1 N9         20.9370   -3.8190   29.4810 N.2       1 IBM        -0.2860
      2 C8         20.8000   -2.8970   30.4910 C.2       1 IBM         0.0953
      3 N7         21.2030   -3.3330   31.6600 N.pl3     1 IBM        -0.2657
      4 C5         21.6310   -4.6270   31.4000 C.2       1 IBM         0.1602
      5 C4         21.4730   -4.9420   30.0670 C.2       1 IBM         0.1379
      6 N3         21.7850   -6.1050   29.4550 N.am      1 IBM        -0.1992
      7 C2         22.3130   -7.0600   30.2830 C.2       1 IBM         0.3179
      8 N1         22.5070   -6.8280   31.6480 N.am      1 IBM        -0.1740
      9 C6         22.1690   -5.6200   32.2060 C.2       1 IBM         0.2295
     10 O6         22.3430   -5.4160   33.3980 O.2       1 IBM        -0.4007
     11 O2         22.6330   -8.1460   29.8140 O.2       1 IBM        -0.3873
     12 C10        23.0740   -7.8740   32.4850 C.3       1 IBM         0.0477
     13 C11        21.6030   -6.3100   28.0200 C.3       1 IBM         0.0580
     14 C12        20.2130   -6.8980   27.7350 C.3       1 IBM        -0.0214
     15 C13        20.0740   -8.3630   28.1360 C.3       1 IBM        -0.0604
     16 C14        19.0590   -6.0470   28.2480 C.3       1 IBM        -0.0604
     17 H1         20.3948   -1.8983   30.3350 H         1 IBM         0.1261
     18 H2         21.2021   -2.8324   32.5602 H         1 IBM         0.2315
     19 H3         23.2806   -8.7631   31.8712 H         1 IBM         0.0539
     20 H4         22.3598   -8.1351   33.2798 H         1 IBM         0.0539
     21 H5         24.0104   -7.5148   32.9368 H         1 IBM         0.0539
     22 H6         22.3726   -7.0048   27.6527 H         1 IBM         0.0587
     23 H7         21.7018   -5.3454   27.5007 H         1 IBM         0.0587
     24 H8         20.1176   -6.8853   26.6392 H         1 IBM         0.0320
     25 H9         19.0573   -8.7121   27.9028 H         1 IBM         0.0233
     26 H10        20.2587   -8.4669   29.2154 H         1 IBM         0.0233
     27 H11        20.8057   -8.9667   27.5790 H         1 IBM         0.0233
     28 H12        19.2053   -5.0031   27.9337 H         1 IBM         0.0233
     29 H13        19.0257   -6.0980   29.3463 H         1 IBM         0.0233
     30 H14        18.1124   -6.4251   27.8345 H         1 IBM         0.0233
@<TRIPOS>BOND
     1    1    2 2  
     2    1    5 1  
     3    2    3 1  
     4    3    4 1  
     5    4    5 2  
     6    4    9 1  
     7    5    6 1  
     8    6    7 am 
     9    6   13 1  
    10    7    8 am 
    11    7   11 2  
    12    8    9 am 
    13    8   12 1  
    14    9   10 2  
    15   13   14 1  
    16   14   15 1  
    17   14   16 1  
    18    2   17 1  
    19    3   18 1  
    20   12   19 1  
    21   12   20 1  
    22   12   21 1  
    23   13   22 1  
    24   13   23 1  
    25   14   24 1  
    26   15   25 1  
    27   15   26 1  
    28   15   27 1  
    29   16   28 1  
    30   16   29 1  
    31   16   30 1  
@<TRIPOS>SUBSTRUCTURE
     1 IBM         1

