### 
### Created by X-TOOL on Mon Sep 10 21:12:54 2018
### 

@<TRIPOS>MOLECULE
1zky_ligand
   45    47     1     0     0
SMALL
GAST_HUCK


@<TRIPOS>ATOM
      1 CAN       -26.0470    4.0070   -3.4670 C.3       1 689        -0.0594
      2 CAK       -25.9500    3.7330   -4.9630 C.3       1 689        -0.0175
      3 CAJ       -24.5310    3.3860   -5.4420 C.3       1 689         0.0213
      4 CAO       -24.7690    2.5870   -6.6580 C.2       1 689        -0.0763
      5 CAR       -24.0250    1.2960   -6.8980 C.3       1 689        -0.0399
      6 CAQ       -25.6340    3.1660   -7.5610 C.2       1 689        -0.1050
      7 CAP       -26.3610    4.4990   -7.2660 C.3       1 689        -0.0277
      8 CAS       -27.7940    4.3370   -7.6850 C.3       1 689        -0.0585
      9 CAL       -26.3770    4.9160   -5.8000 C.3       1 689         0.0278
     10 CAT       -27.7620    5.4200   -5.4320 C.3       1 689         0.0537
     11 OAU       -27.7170    6.2800   -4.3080 O.3       1 689        -0.3942
     12 CAM       -25.4120    6.0800   -5.5940 C.3       1 689         0.0600
     13 OAH       -24.0830    5.7310   -5.2640 O.3       1 689        -0.3629
     14 CAI       -23.8110    4.6270   -6.0400 C.3       1 689         0.0988
     15 CAD       -22.3590    4.3690   -6.4810 C.ar      1 689        -0.0231
     16 CAC       -22.0420    4.2720   -7.8330 C.ar      1 689        -0.0661
     17 CAB       -20.7420    4.0300   -8.2250 C.ar      1 689        -0.0397
     18 CAA       -19.7490    3.8700   -7.2730 C.ar      1 689         0.0805
     19 OAG       -18.4820    3.6280   -7.6360 O.3       1 689        -0.3376
     20 CAF       -20.0620    3.9720   -5.9330 C.ar      1 689        -0.0397
     21 CAE       -21.3570    4.2110   -5.5410 C.ar      1 689        -0.0661
     22 H1        -25.7252    3.1152   -2.9093 H         1 689         0.0234
     23 H2        -27.0879    4.2474   -3.2050 H         1 689         0.0234
     24 H3        -25.3979    4.8561   -3.2069 H         1 689         0.0234
     25 H4        -26.6130    2.8832   -5.1825 H         1 689         0.0332
     26 H5        -23.9379    2.8783   -4.6671 H         1 689         0.0494
     27 H6        -24.3469    0.8598   -7.8552 H         1 689         0.0375
     28 H7        -24.2419    0.5906   -6.0823 H         1 689         0.0375
     29 H8        -22.9440    1.4966   -6.9316 H         1 689         0.0375
     30 H9        -25.8115    2.6688   -8.5135 H         1 689         0.0245
     31 H10       -25.8813    5.2957   -7.8534 H         1 689         0.0379
     32 H11       -27.8350    4.0348   -8.7419 H         1 689         0.0247
     33 H12       -28.3240    5.2922   -7.5560 H         1 689         0.0247
     34 H13       -28.2726    3.5653   -7.0642 H         1 689         0.0247
     35 H14       -28.4058    4.5592   -5.1984 H         1 689         0.0565
     36 H15       -28.1815    5.9703   -6.2871 H         1 689         0.0565
     37 H16       -28.5956    6.5777   -4.1031 H         1 689         0.2094
     38 H17       -25.8077    6.7055   -4.7803 H         1 689         0.0570
     39 H18       -25.3852    6.6641   -6.5257 H         1 689         0.0570
     40 H19       -24.3301    4.8295   -6.9884 H         1 689         0.0764
     41 H20       -22.8192    4.3870   -8.5799 H         1 689         0.0531
     42 H21       -20.4973    3.9650   -9.2790 H         1 689         0.0525
     43 H22       -18.4454    2.8199   -8.1344 H         1 689         0.2458
     44 H23       -19.2833    3.8632   -5.1868 H         1 689         0.0525
     45 H24       -21.5954    4.2763   -4.4856 H         1 689         0.0531
@<TRIPOS>BOND
     1    1    2 1  
     2    2    3 1  
     3    2    9 1  
     4    3    4 1  
     5    3   14 1  
     6    4    5 1  
     7    4    6 2  
     8    6    7 1  
     9    7    8 1  
    10    7    9 1  
    11    9   10 1  
    12    9   12 1  
    13   10   11 1  
    14   12   13 1  
    15   13   14 1  
    16   14   15 1  
    17   15   16 ar 
    18   15   21 ar 
    19   16   17 ar 
    20   17   18 ar 
    21   18   19 1  
    22   18   20 ar 
    23   20   21 ar 
    24    1   22 1  
    25    1   23 1  
    26    1   24 1  
    27    2   25 1  
    28    3   26 1  
    29    5   27 1  
    30    5   28 1  
    31    5   29 1  
    32    6   30 1  
    33    7   31 1  
    34    8   32 1  
    35    8   33 1  
    36    8   34 1  
    37   10   35 1  
    38   10   36 1  
    39   11   37 1  
    40   12   38 1  
    41   12   39 1  
    42   14   40 1  
    43   16   41 1  
    44   17   42 1  
    45   19   43 1  
    46   20   44 1  
    47   21   45 1  
@<TRIPOS>SUBSTRUCTURE
     1 689         1

