### 
### Created by X-TOOL on Mon Sep 10 21:12:52 2018
### 

@<TRIPOS>MOLECULE
1zm6_ligand
   83    83     1     0     0
SMALL
GAST_HUCK


@<TRIPOS>ATOM
      1 N          29.9450   27.4240  -11.1580 N.4       1 LEU         0.2379
      2 CA         29.4400   28.7610  -11.5000 C.3       1 LEU         0.0652
      3 C          30.2690   29.8710  -10.8500 C.2       1 LEU         0.2267
      4 O          30.6940   30.8050  -11.5210 O.2       1 LEU        -0.3907
      5 CB         27.9570   28.9040  -11.0790 C.3       1 LEU         0.0102
      6 CG         27.1180   30.0170  -11.7300 C.3       1 LEU        -0.0394
      7 CD1        25.8290   29.4510  -12.3000 C.3       1 LEU        -0.0623
      8 CD2        26.8390   31.1240  -10.7160 C.3       1 LEU        -0.0623
      9 N          30.5170   29.7940   -9.5110 N.am      1 ALA        -0.2613
     10 CA         31.2770   30.9010   -8.8520 C.3       1 ALA         0.1283
     11 C          32.0290   30.6960   -7.4810 C.2       1 ALA         0.2036
     12 O          32.0140   29.6380   -6.8540 O.2       1 ALA        -0.3944
     13 CB         30.3170   32.0740   -8.7060 C.3       1 ALA        -0.0244
     14 N          32.6800   31.8690   -7.1010 N.am      1 ILE        -0.2635
     15 CA         33.6350   32.3190   -6.0350 C.3       1 ILE         0.1335
     16 C          33.5480   32.0900   -4.5360 C.2       1 ILE         0.2043
     17 O          32.6060   32.5150   -3.8470 O.2       1 ILE        -0.3944
     18 CB         33.7640   33.8690   -6.1060 C.3       1 ILE        -0.0037
     19 CG1        33.8050   34.3330   -7.5480 C.3       1 ILE        -0.0491
     20 CG2        35.0140   34.3360   -5.3710 C.3       1 ILE        -0.0582
     21 CD1        32.4620   34.3030   -8.2280 C.3       1 ILE        -0.0648
     22 N          34.5980   31.3880   -4.0730 N.am      1 TYR        -0.2621
     23 CA         34.8200   31.2340   -2.6400 C.3       1 TYR         0.1390
     24 C          35.4930   32.5160   -2.2970 C.2       1 TYR         0.2053
     25 O          34.9430   33.5850   -2.5240 O.2       1 TYR        -0.3942
     26 CB         35.7150   30.0470   -2.2750 C.3       1 TYR         0.0163
     27 CG         35.5710   29.0170   -3.3240 C.ar      1 TYR        -0.0493
     28 CD1        35.9850   29.3430   -4.5950 C.ar      1 TYR        -0.0685
     29 CD2        35.0010   27.7790   -3.0540 C.ar      1 TYR        -0.0685
     30 CE1        35.8260   28.4590   -5.6230 C.ar      1 TYR        -0.0398
     31 CE2        34.8220   26.9020   -4.0980 C.ar      1 TYR        -0.0398
     32 CZ         35.2320   27.2430   -5.3770 C.ar      1 TYR         0.0805
     33 OH         35.0340   26.3530   -6.4030 O.3       1 TYR        -0.3376
     34 N          36.6560   32.4210   -1.7700 N.am      1 SER        -0.2671
     35 CA         37.3280   33.6160   -1.4510 C.3       1 SER         0.1173
     36 C          38.4330   33.9240   -2.4540 C.2       1 SER         0.0623
     37 O          38.1760   34.3810   -3.5720 O.co2     1 SER        -0.5665
     38 CB         37.8640   33.5050   -0.0330 C.3       1 SER         0.0789
     39 OG         38.6670   34.6270    0.3020 O.3       1 SER        -0.3910
     40 OXT        39.5930   33.6670   -2.1250 O.co2     1 SER        -0.5665
     41 H1         29.3730   26.7244  -11.6047 H         1 LEU         0.2015
     42 H2         29.9112   27.2976  -10.1585 H         1 LEU         0.2015
     43 H3         30.8971   27.3329  -11.4762 H         1 LEU         0.2015
     44 H4         29.5049   28.8795  -12.5917 H         1 LEU         0.1098
     45 H5         27.9421   29.0780   -9.9930 H         1 LEU         0.0348
     46 H6         27.4610   27.9484  -11.3041 H         1 LEU         0.0348
     47 H7         27.6981   30.4484  -12.5591 H         1 LEU         0.0299
     48 H8         25.2446   30.2614  -12.7601 H         1 LEU         0.0232
     49 H9         25.2425   28.9891  -11.4921 H         1 LEU         0.0232
     50 H10        26.0663   28.6926  -13.0606 H         1 LEU         0.0232
     51 H11        27.7913   31.5107  -10.3240 H         1 LEU         0.0232
     52 H12        26.2387   30.7197   -9.8876 H         1 LEU         0.0232
     53 H13        26.2861   31.9391  -11.2058 H         1 LEU         0.0232
     54 H14        30.1961   29.0106   -8.9788 H         1 ALA         0.1884
     55 H15        32.0602   31.1862   -9.5698 H         1 ALA         0.0797
     56 H16        30.8365   32.9150   -8.2235 H         1 ALA         0.0277
     57 H17        29.4585   31.7706   -8.0888 H         1 ALA         0.0277
     58 H18        29.9626   32.3838   -9.7002 H         1 ALA         0.0277
     59 H19        32.4433   32.6243   -7.7121 H         1 ILE         0.1883
     60 H20        34.5912   31.8657   -6.3351 H         1 ILE         0.0803
     61 H21        32.8842   34.3149   -5.6191 H         1 ILE         0.0345
     62 H22        34.4916   33.6784   -8.1048 H         1 ILE         0.0267
     63 H23        34.1835   35.3656   -7.5707 H         1 ILE         0.0267
     64 H24        34.9742   33.9942   -4.3262 H         1 ILE         0.0235
     65 H25        35.0650   35.4345   -5.3957 H         1 ILE         0.0235
     66 H26        35.9054   33.9164   -5.8603 H         1 ILE         0.0235
     67 H27        32.5688   34.6511   -9.2660 H         1 ILE         0.0230
     68 H28        31.7640   34.9616   -7.6904 H         1 ILE         0.0230
     69 H29        32.0721   33.2744   -8.2245 H         1 ILE         0.0230
     70 H30        35.2341   30.9666   -4.7194 H         1 TYR         0.1885
     71 H31        33.8614   31.1325   -2.1101 H         1 TYR         0.0821
     72 H32        35.4067   29.6337   -1.3033 H         1 TYR         0.0453
     73 H33        36.7633   30.3754   -2.2178 H         1 TYR         0.0453
     74 H34        36.4407   30.3087   -4.7814 H         1 TYR         0.0530
     75 H35        34.7050   27.5113   -2.0462 H         1 TYR         0.0530
     76 H36        36.1639   28.7123   -6.6214 H         1 TYR         0.0525
     77 H37        34.3577   25.9389   -3.9195 H         1 TYR         0.0525
     78 H38        35.3644   26.7255   -7.2121 H         1 TYR         0.2458
     79 H39        37.0722   31.5294   -1.5914 H         1 SER         0.1876
     80 H40        36.6033   34.4429   -1.4846 H         1 SER         0.0749
     81 H41        38.4712   32.5916    0.0505 H         1 SER         0.0599
     82 H42        37.0175   33.4479    0.6671 H         1 SER         0.0599
     83 H43        39.4024   34.6789   -0.2972 H         1 SER         0.2096
@<TRIPOS>BOND
     1    1    2 1  
     2    2    3 1  
     3    2    5 1  
     4    3    4 2  
     5    3    9 am 
     6    5    6 1  
     7    6    7 1  
     8    6    8 1  
     9    9   10 1  
    10   10   11 1  
    11   10   13 1  
    12   11   12 2  
    13   11   14 am 
    14   14   15 1  
    15   15   16 1  
    16   15   18 1  
    17   16   17 2  
    18   16   22 am 
    19   18   19 1  
    20   18   20 1  
    21   19   21 1  
    22   22   23 1  
    23   23   24 1  
    24   23   26 1  
    25   24   25 2  
    26   24   34 am 
    27   26   27 1  
    28   27   28 ar 
    29   27   29 ar 
    30   28   30 ar 
    31   29   31 ar 
    32   30   32 ar 
    33   31   32 ar 
    34   32   33 1  
    35   34   35 1  
    36   35   36 1  
    37   35   38 1  
    38   36   37 ar 
    39   36   40 ar 
    40   38   39 1  
    41    1   41 1  
    42    1   42 1  
    43    1   43 1  
    44    2   44 1  
    45    5   45 1  
    46    5   46 1  
    47    6   47 1  
    48    7   48 1  
    49    7   49 1  
    50    7   50 1  
    51    8   51 1  
    52    8   52 1  
    53    8   53 1  
    54    9   54 1  
    55   10   55 1  
    56   13   56 1  
    57   13   57 1  
    58   13   58 1  
    59   14   59 1  
    60   15   60 1  
    61   18   61 1  
    62   19   62 1  
    63   19   63 1  
    64   20   64 1  
    65   20   65 1  
    66   20   66 1  
    67   21   67 1  
    68   21   68 1  
    69   21   69 1  
    70   22   70 1  
    71   23   71 1  
    72   26   72 1  
    73   26   73 1  
    74   28   74 1  
    75   29   75 1  
    76   30   76 1  
    77   31   77 1  
    78   33   78 1  
    79   34   79 1  
    80   35   80 1  
    81   38   81 1  
    82   38   82 1  
    83   39   83 1  
@<TRIPOS>SUBSTRUCTURE
     1 LEU         1

