### 
### Created by X-TOOL on Mon Sep 10 21:12:53 2018
### 

@<TRIPOS>MOLECULE
1zoe_ligand
   23    24     1     0     0
SMALL
GAST_HUCK


@<TRIPOS>ATOM
      1 C2         21.5230    8.7540   19.1040 C.ar      1 K25         0.0152
      2 C3         21.2850    8.2590   20.4050 C.ar      1 K25         0.0176
      3 C4         21.9770    7.1270   20.8560 C.ar      1 K25         0.0441
      4 C5         22.4150    8.1090   18.2350 C.ar      1 K25         0.0196
      5 N6         23.7040    5.4130   20.1850 N.pl3     1 K25        -0.2251
      6 C7         23.1510    6.9840   18.7000 C.ar      1 K25         0.0283
      7 C8         22.8900    6.5180   19.9860 C.ar      1 K25         0.0921
      8 C13        24.3470    5.1960   19.0140 C.2       1 K25         0.2189
      9 N14        24.1090    6.2160   18.1670 N.2       1 K25        -0.3079
     10 N15        25.2790    4.1620   18.9040 N.pl3     1 K25        -0.2659
     11 C16        25.4880    3.2670   20.0070 C.3       1 K25         0.0254
     12 C17        25.9890    3.9590   17.6710 C.3       1 K25         0.0254
     13 BR1        20.4670   10.2030   18.4730 Br        1 K25        -0.0552
     14 BR9        19.9810    9.0580   21.5580 Br        1 K25        -0.0549
     15 BR10       21.8520    6.4120   22.6210 Br        1 K25        -0.0525
     16 BR11       22.9250    8.8690   16.5740 Br        1 K25        -0.0543
     17 H1         23.8002    4.8658   21.0523 H         1 K25         0.2331
     18 H2         26.2530    2.5242   19.7366 H         1 K25         0.0493
     19 H3         24.5455    2.7524   20.2454 H         1 K25         0.0493
     20 H4         25.8258    3.8385   20.8841 H         1 K25         0.0493
     21 H5         25.7008    4.7377   16.9495 H         1 K25         0.0493
     22 H6         25.7380    2.9692   17.2620 H         1 K25         0.0493
     23 H7         27.0716    4.0148   17.8578 H         1 K25         0.0493
@<TRIPOS>BOND
     1    1    2 ar 
     2    1    4 ar 
     3    1   13 1  
     4    2    3 ar 
     5    2   14 1  
     6    3    7 ar 
     7    3   15 1  
     8    4    6 ar 
     9    4   16 1  
    10    7    5 1  
    11    5    8 1  
    12    6    7 ar 
    13    6    9 1  
    14    8    9 2  
    15    8   10 1  
    16   10   11 1  
    17   10   12 1  
    18    5   17 1  
    19   11   18 1  
    20   11   19 1  
    21   11   20 1  
    22   12   21 1  
    23   12   22 1  
    24   12   23 1  
@<TRIPOS>SUBSTRUCTURE
     1 K25         1

