### 
### Created by X-TOOL on Mon Sep 10 21:12:53 2018
### 

@<TRIPOS>MOLECULE
1zog_ligand
   19    20     1     0     0
SMALL
GAST_HUCK


@<TRIPOS>ATOM
      1 C1         20.9600    9.1930   18.5010 C.ar      1 K37         0.0199
      2 C2         21.9310    8.5560   17.7260 C.ar      1 K37         0.0177
      3 C3         22.6080    7.4250   18.1930 C.ar      1 K37         0.0236
      4 C4         20.6440    8.6960   19.7670 C.ar      1 K37         0.0468
      5 N5         21.1980    6.9500   21.3680 N.pl3     1 K37        -0.2323
      6 C6         21.3060    7.5620   20.2050 C.ar      1 K37         0.0961
      7 C7         22.2660    6.9450   19.4510 C.ar      1 K37         0.0385
      8 N8         22.7710    5.9460   20.1570 N.2       1 K37        -0.3026
      9 C9         22.0990    5.9620   21.3120 C.2       1 K37         0.1884
     10 S          22.2580    4.7780   22.6140 S.3       1 K37        -0.0378
     11 C11        22.6190    3.1510   21.9020 C.3       1 K37         0.0052
     12 BR10       19.3860    9.5760   20.8750 Br        1 K37        -0.0515
     13 BR11       19.9870   10.6940   17.8530 Br        1 K37        -0.0532
     14 BR12       22.3780    9.2520   16.0170 Br        1 K37        -0.0544
     15 BR13       23.9260    6.5670   17.1280 Br        1 K37        -0.0522
     16 H1         20.5627    7.1806   22.1452 H         1 K37         0.2351
     17 H2         22.7187    2.4112   22.7099 H         1 K37         0.0376
     18 H3         23.5586    3.2004   21.3321 H         1 K37         0.0376
     19 H4         21.7989    2.8538   21.2319 H         1 K37         0.0376
@<TRIPOS>BOND
     1    1    2 ar 
     2    1    4 ar 
     3    1   13 1  
     4    2    3 ar 
     5    2   14 1  
     6    3    7 ar 
     7    3   15 1  
     8    4    6 ar 
     9    4   12 1  
    10    6    5 1  
    11    5    9 1  
    12    6    7 ar 
    13    7    8 1  
    14    8    9 2  
    15    9   10 1  
    16   10   11 1  
    17    5   16 1  
    18   11   17 1  
    19   11   18 1  
    20   11   19 1  
@<TRIPOS>SUBSTRUCTURE
     1 K37         1

