### 
### Created by X-TOOL on Mon Sep 10 21:12:52 2018
### 

@<TRIPOS>MOLECULE
1zoh_ligand
   24    26     1     0     0
SMALL
GAST_HUCK


@<TRIPOS>ATOM
      1 C1         22.7090    8.0550   18.1030 C.ar      1 K44         0.0152
      2 C2         21.6850    8.6710   18.8360 C.ar      1 K44         0.0176
      3 C3         21.3850    8.1850   20.1010 C.ar      1 K44         0.0443
      4 C4         23.4120    6.9930   18.6330 C.ar      1 K44         0.0196
      5 N5         23.6510    5.4830   20.5310 N.2       1 K44        -0.3077
      6 C6         23.0910    6.5160   19.8870 C.ar      1 K44         0.0285
      7 C7         22.1160    7.1290   20.6350 C.ar      1 K44         0.0950
      8 N8         22.0990    6.4450   21.7640 N.pl3     1 K44        -0.2091
      9 C9         22.9740    5.4850   21.6700 C.2       1 K44         0.2218
     10 N10        23.0490    4.7180   22.7770 N.pl3     1 K44        -0.2602
     11 C11        23.6130    3.3820   22.7050 C.3       1 K44         0.0258
     12 C12        21.3670    6.4730   22.9940 C.3       1 K44         0.0798
     13 C14        21.8950    5.0660   23.6410 C.3       1 K44         0.0631
     14 BR10       24.7840    6.1340   17.6550 Br        1 K44        -0.0543
     15 BR11       23.1670    8.7410   16.4070 Br        1 K44        -0.0552
     16 BR12       20.7440   10.1060   18.0180 Br        1 K44        -0.0549
     17 BR13       20.0340    9.0390   21.1120 Br        1 K44        -0.0525
     18 H1         23.5870    2.9188   23.7024 H         1 K44         0.0493
     19 H2         24.6543    3.4419   22.3556 H         1 K44         0.0493
     20 H3         23.0250    2.7731   22.0026 H         1 K44         0.0493
     21 H4         20.2798    6.4673   22.8268 H         1 K44         0.0620
     22 H5         21.6379    7.3395   23.6152 H         1 K44         0.0620
     23 H6         22.2100    5.2043   24.6858 H         1 K44         0.0556
     24 H7         21.1160    4.2909   23.5924 H         1 K44         0.0556
@<TRIPOS>BOND
     1    1    2 ar 
     2    1    4 ar 
     3    1   15 1  
     4    2    3 ar 
     5    2   16 1  
     6    3    7 ar 
     7    3   17 1  
     8    4    6 ar 
     9    4   14 1  
    10    6    5 1  
    11    5    9 2  
    12    6    7 ar 
    13    7    8 1  
    14    8    9 1  
    15    8   12 1  
    16    9   10 1  
    17   10   11 1  
    18   10   13 1  
    19   12   13 1  
    20   11   18 1  
    21   11   19 1  
    22   11   20 1  
    23   12   21 1  
    24   12   22 1  
    25   13   23 1  
    26   13   24 1  
@<TRIPOS>SUBSTRUCTURE
     1 K44         1

