### 
### Created by X-TOOL on Mon Sep 10 21:12:54 2018
### 

@<TRIPOS>MOLECULE
1zom_ligand
   92    93     1     0     0
SMALL
GAST_HUCK


@<TRIPOS>ATOM
      1 CX         11.5170   51.1600   25.0990 C.3       1 339         0.1476
      2 CY         11.8800   51.2140   23.5830 C.3       1 339         0.0846
      3 CZ         11.7280   52.5610   25.7520 C.2       1 339         0.1228
      4 OX         10.1370   50.8070   25.1710 O.3       1 339        -0.3688
      5 N1         13.3390   51.5570   23.4590 N.am      1 339        -0.2766
      6 C2         11.6680   49.8610   22.8880 C.3       1 339        -0.0216
      7 C3         12.0110   49.9140   21.4000 C.3       1 339        -0.0174
      8 C4         11.8040   48.5690   20.7430 C.3       1 339         0.0626
      9 N5         11.7580   48.8070   19.3050 N.pl3     1 339        -0.2723
     10 C6         11.3390   47.9800   18.3420 C.cat     1 339         0.2882
     11 N7         11.1520   46.6630   18.5590 N.pl3     1 339        -0.2849
     12 N8         11.1120   48.5070   17.1430 N.pl3     1 339        -0.2849
     13 N9         12.7470   52.8440   26.5100 N.2       1 339        -0.3222
     14 C10        12.6530   54.1780   26.9320 C.2       1 339        -0.0304
     15 C11        11.5190   54.8170   26.4310 C.2       1 339         0.0024
     16 S12        10.5850   53.8000   25.4600 S.3       1 339        -0.0036
     17 N13        15.8550   53.3840   21.6960 N.am      1 339        -0.2635
     18 C14        15.4690   52.7540   23.0100 C.3       1 339         0.1331
     19 C15        13.9110   52.6980   23.0460 C.2       1 339         0.2024
     20 O16        13.2450   53.6740   22.6950 O.2       1 339        -0.3945
     21 C17        15.9860   53.5980   24.2340 C.3       1 339        -0.0063
     22 C18        17.1790   52.8670   24.8420 C.3       1 339        -0.0584
     23 C19        16.4900   55.0230   23.8560 C.3       1 339        -0.0584
     24 N20        16.2200   55.1140   19.5340 N.am      1 339        -0.2518
     25 C21        16.0380   53.7000   19.2060 C.3       1 339         0.1314
     26 C22        15.5770   52.9060   20.4400 C.2       1 339         0.2037
     27 O23        14.9590   51.8580   20.2420 O.2       1 339        -0.3944
     28 C24        17.3440   53.1370   18.6530 C.3       1 339        -0.0108
     29 C25        17.5950   53.6240   17.2320 C.3       1 339        -0.0288
     30 C26        18.8820   53.0620   16.6920 C.3       1 339         0.0314
     31 N27        18.8260   53.1310   15.2320 N.am      1 339        -0.2733
     32 C28        19.8270   52.9960   14.3460 C.2       1 339         0.2548
     33 N29        19.6000   52.7290   13.0620 N.am      1 339        -0.2870
     34 O30        21.0610   53.1420   14.7670 O.2       1 339        -0.4010
     35 C31        15.2370   56.0200   19.4570 C.2       1 339         0.2618
     36 O32        14.0760   55.6820   19.0860 O.2       1 339        -0.4006
     37 N33        15.5480   57.3060   19.8100 N.am      1 339        -0.2586
     38 C34        14.6030   58.4800   19.8400 C.3       1 339         0.0744
     39 C35        13.4530   58.2140   20.8840 C.ar      1 339        -0.0156
     40 C36        12.2380   59.0160   20.8330 C.ar      1 339        -0.0553
     41 C37        11.1630   58.7810   21.7790 C.ar      1 339        -0.0589
     42 C38        11.2830   57.7390   22.7980 C.ar      1 339         0.0056
     43 C39        12.4720   56.9430   22.8640 C.ar      1 339        -0.0589
     44 C40        13.5410   57.1620   21.9390 C.ar      1 339        -0.0553
     45 BR41        9.9050   57.4070   24.0350 Br        1 339        -0.0561
     46 C42        15.3680   59.7540   20.2320 C.3       1 339        -0.0317
     47 H1         12.1351   50.4107   25.6153 H         1 339         0.0877
     48 H2         11.2649   51.9806   23.0890 H         1 339         0.0614
     49 H3         10.0084   49.9539   24.7734 H         1 339         0.2144
     50 H4         13.9737   50.8304   23.7221 H         1 339         0.1858
     51 H5         10.6134   49.5682   22.9978 H         1 339         0.0292
     52 H6         12.3094   49.1100   23.3724 H         1 339         0.0292
     53 H7         13.0638   50.2112   21.2849 H         1 339         0.0300
     54 H8         11.3646   50.6563   20.9090 H         1 339         0.0300
     55 H9         10.8582   48.1224   21.0836 H         1 339         0.0689
     56 H10        12.6375   47.8947   20.9890 H         1 339         0.0689
     57 H11        12.0908   49.7299   18.9914 H         1 339         0.2642
     58 H12        10.8281   46.0557   17.7927 H         1 339         0.2615
     59 H13        11.3330   46.2638   19.4911 H         1 339         0.2615
     60 H14        11.2579   49.5147   16.9873 H         1 339         0.2615
     61 H15        10.7902   47.9077   16.3696 H         1 339         0.2615
     62 H16        13.3839   54.6611   27.5788 H         1 339         0.0533
     63 H17        11.2649   55.8546   26.6423 H         1 339         0.0664
     64 H18        16.3680   54.2410   21.7447 H         1 339         0.1883
     65 H19        15.8861   51.7379   23.0696 H         1 339         0.0802
     66 H20        15.1748   53.6865   24.9717 H         1 339         0.0343
     67 H21        17.5597   53.4381   25.7016 H         1 339         0.0234
     68 H22        17.9726   52.7687   24.0867 H         1 339         0.0234
     69 H23        16.8650   51.8672   25.1762 H         1 339         0.0234
     70 H24        15.6647   55.5975   23.4102 H         1 339         0.0234
     71 H25        17.3129   54.9405   23.1308 H         1 339         0.0234
     72 H26        16.8481   55.5371   24.7601 H         1 339         0.0234
     73 H27        17.1247   55.4196   19.8309 H         1 339         0.1877
     74 H28        15.2624   53.6157   18.4305 H         1 339         0.0797
     75 H29        17.2891   52.0384   18.6514 H         1 339         0.0313
     76 H30        18.1755   53.4617   19.2958 H         1 339         0.0313
     77 H31        17.6538   54.7224   17.2327 H         1 339         0.0287
     78 H32        16.7631   53.3017   16.5885 H         1 339         0.0287
     79 H33        18.9965   52.0160   17.0124 H         1 339         0.0517
     80 H34        19.7323   53.6539   17.0616 H         1 339         0.0517
     81 H35        17.9216   53.3015   14.8409 H         1 339         0.1845
     82 H36        20.3673   52.6345   12.4277 H         1 339         0.1808
     83 H37        18.6621   52.6229   12.7316 H         1 339         0.1808
     84 H38        16.4960   57.4839   20.0740 H         1 339         0.1876
     85 H39        14.1620   58.6147   18.8413 H         1 339         0.0720
     86 H40        12.1363   59.7929   20.0839 H         1 339         0.0565
     87 H41        10.2630   59.3832   21.7299 H         1 339         0.0626
     88 H42        12.5623   56.1704   23.6190 H         1 339         0.0626
     89 H43        14.4339   56.5509   22.0057 H         1 339         0.0565
     90 H44        14.6737   60.6070   20.2522 H         1 339         0.0274
     91 H45        16.1628   59.9456   19.4960 H         1 339         0.0274
     92 H46        15.8150   59.6214   21.2283 H         1 339         0.0274
@<TRIPOS>BOND
     1    2    1 1  
     2    1    3 1  
     3    1    4 1  
     4    5    2 1  
     5    2    6 1  
     6    3   13 2  
     7    3   16 1  
     8   19    5 am 
     9    6    7 1  
    10    7    8 1  
    11    8    9 1  
    12    9   10 ar 
    13   10   11 ar 
    14   10   12 ar 
    15   13   14 1  
    16   15   14 2  
    17   16   15 1  
    18   17   18 1  
    19   26   17 am 
    20   18   19 1  
    21   18   21 1  
    22   19   20 2  
    23   21   22 1  
    24   21   23 1  
    25   25   24 1  
    26   24   35 am 
    27   25   26 1  
    28   25   28 1  
    29   26   27 2  
    30   28   29 1  
    31   29   30 1  
    32   30   31 1  
    33   31   32 am 
    34   32   33 am 
    35   32   34 2  
    36   35   36 2  
    37   35   37 am 
    38   37   38 1  
    39   38   39 1  
    40   38   46 1  
    41   39   40 ar 
    42   39   44 ar 
    43   40   41 ar 
    44   41   42 ar 
    45   42   43 ar 
    46   42   45 1  
    47   43   44 ar 
    48    1   47 1  
    49    2   48 1  
    50    4   49 1  
    51    5   50 1  
    52    6   51 1  
    53    6   52 1  
    54    7   53 1  
    55    7   54 1  
    56    8   55 1  
    57    8   56 1  
    58    9   57 1  
    59   11   58 1  
    60   11   59 1  
    61   12   60 1  
    62   12   61 1  
    63   14   62 1  
    64   15   63 1  
    65   17   64 1  
    66   18   65 1  
    67   21   66 1  
    68   22   67 1  
    69   22   68 1  
    70   22   69 1  
    71   23   70 1  
    72   23   71 1  
    73   23   72 1  
    74   24   73 1  
    75   25   74 1  
    76   28   75 1  
    77   28   76 1  
    78   29   77 1  
    79   29   78 1  
    80   30   79 1  
    81   30   80 1  
    82   31   81 1  
    83   33   82 1  
    84   33   83 1  
    85   37   84 1  
    86   38   85 1  
    87   40   86 1  
    88   41   87 1  
    89   43   88 1  
    90   44   89 1  
    91   46   90 1  
    92   46   91 1  
    93   46   92 1  
@<TRIPOS>SUBSTRUCTURE
     1 339         1

