### 
### Created by X-TOOL on Mon Sep 10 21:12:53 2018
### 

@<TRIPOS>MOLECULE
1zp5_ligand
   40    41     1     0     0
SMALL
GAST_HUCK


@<TRIPOS>ATOM
      1 C1         -2.9740   22.8540    8.2950 C.ar      1 2NI        -0.0594
      2 C2         -3.3910   23.2990    9.5870 C.ar      1 2NI        -0.0296
      3 C3         -2.6530   22.9260   10.7680 C.ar      1 2NI         0.0946
      4 C4         -1.4870   22.0970   10.6060 C.ar      1 2NI        -0.0296
      5 C5         -1.0710   21.6490    9.3090 C.ar      1 2NI        -0.0594
      6 C6         -1.8140   22.0220    8.1290 C.ar      1 2NI        -0.0225
      7 C7         -1.3910   21.5410    6.7540 C.ar      1 2NI        -0.0167
      8 C8         -0.3690   20.5280    6.6060 C.ar      1 2NI        -0.0463
      9 C9          0.0180   20.0600    5.3090 C.ar      1 2NI        -0.0291
     10 C10        -0.6100   20.5980    4.1370 C.ar      1 2NI         0.0926
     11 C11        -1.6180   21.6040    4.2600 C.ar      1 2NI        -0.0291
     12 C12        -2.0070   22.0720    5.5520 C.ar      1 2NI        -0.0463
     13 C13        -0.2160   20.1060    2.8140 C.1       1 2NI         0.0969
     14 N1          0.0740   19.6960    1.7790 N.1       1 2NI        -0.3314
     15 O1         -3.0860   23.3680   12.0860 O.3       1 2NI        -0.3138
     16 C14        -3.7560   24.6570   12.1150 C.3       1 2NI         0.0913
     17 C15        -2.8750   25.8140   12.5920 C.3       1 2NI         0.0617
     18 N2         -3.4620   27.1780   12.1430 N.am      1 2NI        -0.2587
     19 C16        -3.9890   27.8210   13.3900 C.3       1 2NI         0.0229
     20 C17        -2.3340   27.9090   11.5260 C.2       1 2NI         0.2835
     21 O2         -2.4710   29.1400   11.3990 O.2       1 2NI        -0.4008
     22 N3         -1.1370   27.2530   11.0780 N.am      1 2NI        -0.1503
     23 O3         -1.1470   26.1930   10.0580 O.3       1 2NI        -0.2719
     24 H1         -3.5443   23.1500    7.4220 H         1 2NI         0.0613
     25 H2         -4.2718   23.9239    9.6803 H         1 2NI         0.0552
     26 H3         -0.9140   21.8067   11.4792 H         1 2NI         0.0552
     27 H4         -0.1902   21.0243    9.2137 H         1 2NI         0.0613
     28 H5          0.1099   20.1180    7.4878 H         1 2NI         0.0629
     29 H6          0.7848   19.2999    5.2131 H         1 2NI         0.0710
     30 H7         -2.0874   22.0119    3.3721 H         1 2NI         0.0710
     31 H8         -2.7730   22.8344    5.6360 H         1 2NI         0.0629
     32 H9         -4.6204   24.5809   12.7910 H         1 2NI         0.0636
     33 H10        -4.1052   24.8867   11.0975 H         1 2NI         0.0636
     34 H11        -1.8671   25.6982   12.1670 H         1 2NI         0.0546
     35 H12        -2.8147   25.7918   13.6901 H         1 2NI         0.0546
     36 H13        -4.4234   28.8007   13.1419 H         1 2NI         0.0483
     37 H14        -3.1671   27.9557   14.1086 H         1 2NI         0.0483
     38 H15        -4.7633   27.1786   13.8347 H         1 2NI         0.0483
     39 H16        -0.2616   27.5280   11.4756 H         1 2NI         0.2209
     40 H17        -0.2584   25.8934    9.9055 H         1 2NI         0.2486
@<TRIPOS>BOND
     1    1    2 ar 
     2    1    6 ar 
     3    2    3 ar 
     4    3    4 ar 
     5    3   15 1  
     6    4    5 ar 
     7    5    6 ar 
     8    6    7 1  
     9    7    8 ar 
    10    7   12 ar 
    11    8    9 ar 
    12    9   10 ar 
    13   10   11 ar 
    14   10   13 1  
    15   11   12 ar 
    16   13   14 3  
    17   15   16 1  
    18   16   17 1  
    19   17   18 1  
    20   18   19 1  
    21   18   20 am 
    22   20   21 2  
    23   20   22 am 
    24   22   23 1  
    25    1   24 1  
    26    2   25 1  
    27    4   26 1  
    28    5   27 1  
    29    8   28 1  
    30    9   29 1  
    31   11   30 1  
    32   12   31 1  
    33   16   32 1  
    34   16   33 1  
    35   17   34 1  
    36   17   35 1  
    37   19   36 1  
    38   19   37 1  
    39   19   38 1  
    40   22   39 1  
    41   23   40 1  
@<TRIPOS>SUBSTRUCTURE
     1 2NI         1

