### 
### Created by X-TOOL on Mon Sep 10 21:12:52 2018
### 

@<TRIPOS>MOLECULE
1zp8_ligand
   88    92     1     0     0
SMALL
GAST_HUCK


@<TRIPOS>ATOM
      1 C1         -6.6180   16.2430   18.1490 C.3       1 AB2         0.0594
      2 O1         -7.7260   16.9060   18.7550 O.3       1 AB2        -0.3212
      3 C2         -7.9860   16.7020   20.0790 C.ar      1 AB2         0.0908
      4 C3         -9.2780   16.8930   20.5620 C.ar      1 AB2        -0.0313
      5 C4         -9.5410   16.6050   21.9120 C.ar      1 AB2        -0.0440
      6 C5         -8.4990   16.2180   22.7200 C.ar      1 AB2         0.0971
      7 C6         -7.1900   16.0850   22.2570 C.ar      1 AB2        -0.0440
      8 C7         -6.9320   16.3130   20.8980 C.ar      1 AB2        -0.0313
      9 S1         -8.8060   15.9020   24.4310 S.o2      1 AB2         0.0657
     10 O2        -10.0130   15.1570   24.3620 O.2       1 AB2        -0.1515
     11 O3         -7.7790   15.0050   24.8740 O.2       1 AB2        -0.1515
     12 N1         -8.7070   17.4230   25.2580 N.am      1 AB2        -0.2324
     13 C8         -7.5030   18.0780   25.7230 C.3       1 AB2         0.0319
     14 C9         -6.6320   17.5130   26.8540 C.3       1 AB2        -0.0296
     15 C10        -5.6470   16.4090   26.4390 C.3       1 AB2        -0.0612
     16 C11        -6.1870   18.4910   27.9380 C.3       1 AB2        -0.0612
     17 C12        -9.9590   17.9730   25.7980 C.3       1 AB2         0.0587
     18 C13       -10.1640   17.8750   27.3440 C.3       1 AB2         0.1069
     19 O4        -11.1500   18.7720   27.7640 O.3       1 AB2        -0.3867
     20 C14       -10.4920   16.3910   27.7450 C.3       1 AB2         0.1226
     21 C15       -12.0240   16.0510   27.6220 C.3       1 AB2         0.0167
     22 C16       -12.2110   14.5490   27.8500 C.ar      1 AB2        -0.0398
     23 C17       -12.0220   13.6720   26.7810 C.ar      1 AB2        -0.0602
     24 C18       -12.1380   12.3100   27.0340 C.ar      1 AB2        -0.0686
     25 C19       -12.5320   11.9070   28.3000 C.ar      1 AB2        -0.0687
     26 C20       -12.7670   12.7660   29.3630 C.ar      1 AB2        -0.0686
     27 C21       -12.5960   14.1330   29.1130 C.ar      1 AB2        -0.0602
     28 N2         -9.8940   16.0960   29.0470 N.pl3     1 AB2        -0.1736
     29 C22       -10.3870   16.2980   30.3090 C.2       1 AB2         0.0725
     30 C23        -9.4170   15.8800   31.1970 C.2       1 AB2         0.0670
     31 C24        -9.5350   15.8770   32.6900 C.3       1 AB2         0.1121
     32 O5        -10.8310   15.3830   33.0040 O.3       1 AB2        -0.2545
     33 C25       -11.3870   15.3690   34.2310 C.2       1 AB2         0.3231
     34 O6        -11.4670   16.4040   34.8580 O.2       1 AB2        -0.3774
     35 N3        -11.8160   14.1650   34.6740 N.am      1 AB2        -0.2466
     36 C26       -13.0490   13.4420   34.2430 C.3       1 AB2         0.1026
     37 C27       -13.4450   13.6400   32.7520 C.3       1 AB2         0.0950
     38 O7        -14.3200   14.7160   32.4260 O.3       1 AB2        -0.3857
     39 C28       -13.8900   12.2510   32.3170 C.3       1 AB2         0.0085
     40 C29       -13.1720   11.2740   33.2550 C.ar      1 AB2        -0.0361
     41 C30       -12.9540    9.9030   33.1560 C.ar      1 AB2        -0.0667
     42 C31       -12.2610    9.2240   34.1640 C.ar      1 AB2        -0.0755
     43 C32       -11.7830    9.9360   35.2520 C.ar      1 AB2        -0.0754
     44 C33       -11.9580   11.3030   35.3210 C.ar      1 AB2        -0.0646
     45 C34       -12.6890   11.9760   34.3520 C.ar      1 AB2        -0.0133
     46 N4         -8.3910   15.3640   30.4700 N.2       1 AB2        -0.2238
     47 N5         -8.6660   15.5490   29.2180 N.2       1 AB2        -0.1014
     48 H1         -6.5602   16.5220   17.0866 H         1 AB2         0.0577
     49 H2         -6.7500   15.1544   18.2355 H         1 AB2         0.0577
     50 H3         -5.6893   16.5413   18.6575 H         1 AB2         0.0577
     51 H4        -10.0644   17.2562   19.9103 H         1 AB2         0.0542
     52 H5        -10.5466   16.6865   22.3085 H         1 AB2         0.0608
     53 H6         -6.3889   15.8110   22.9339 H         1 AB2         0.0608
     54 H7         -5.9334   16.1888   20.4949 H         1 AB2         0.0542
     55 H8         -7.8101   19.0827   26.0490 H         1 AB2         0.0480
     56 H9         -6.8447   18.1624   24.8458 H         1 AB2         0.0480
     57 H10        -7.3747   16.9238   27.4118 H         1 AB2         0.0311
     58 H11        -5.0764   16.0770   27.3189 H         1 AB2         0.0233
     59 H12        -4.9546   16.8017   25.6798 H         1 AB2         0.0233
     60 H13        -6.2048   15.5579   26.0213 H         1 AB2         0.0233
     61 H14        -6.9901   19.2184   28.1276 H         1 AB2         0.0233
     62 H15        -5.2830   19.0216   27.6045 H         1 AB2         0.0233
     63 H16        -5.9673   17.9379   28.8631 H         1 AB2         0.0233
     64 H17       -10.7916   17.4383   25.3176 H         1 AB2         0.0505
     65 H18       -10.0001   19.0375   25.5240 H         1 AB2         0.0505
     66 H19        -9.2216   18.1576   27.8359 H         1 AB2         0.0644
     67 H20       -10.8863   19.6573   27.5423 H         1 AB2         0.2100
     68 H21        -9.9830   15.7436   27.0158 H         1 AB2         0.0734
     69 H22       -12.3841   16.3210   26.6183 H         1 AB2         0.0459
     70 H23       -12.5904   16.6139   28.3785 H         1 AB2         0.0459
     71 H24       -11.7926   14.0402   25.7876 H         1 AB2         0.0557
     72 H25       -11.9255   11.5812   26.2602 H         1 AB2         0.0599
     73 H26       -12.6660   10.8451   28.4715 H         1 AB2         0.0559
     74 H27       -13.0676   12.3981   30.3373 H         1 AB2         0.0599
     75 H28       -12.7635   14.8586   29.9008 H         1 AB2         0.0557
     76 H29       -11.3619   16.7111   30.5638 H         1 AB2         0.0900
     77 H30        -9.4154   16.8984   33.0804 H         1 AB2         0.0729
     78 H31        -8.7657   15.2244   33.1284 H         1 AB2         0.0729
     79 H32       -11.2483   13.7122   35.3616 H         1 AB2         0.1896
     80 H33       -13.8921   13.7128   34.8956 H         1 AB2         0.0731
     81 H34       -12.5181   13.8686   32.2057 H         1 AB2         0.0659
     82 H35       -14.4780   14.7215   31.4893 H         1 AB2         0.2103
     83 H36       -13.5990   12.0643   31.2728 H         1 AB2         0.0439
     84 H37       -14.9805   12.1483   32.4178 H         1 AB2         0.0439
     85 H38       -13.3228    9.3588   32.2941 H         1 AB2         0.0537
     86 H39       -12.1001    8.1543   34.0945 H         1 AB2         0.0541
     87 H40       -11.2691    9.4168   36.0529 H         1 AB2         0.0541
     88 H41       -11.5191   11.8581   36.1422 H         1 AB2         0.0538
@<TRIPOS>BOND
     1    1    2 1  
     2    2    3 1  
     3    3    4 ar 
     4    3    8 ar 
     5    4    5 ar 
     6    5    6 ar 
     7    6    7 ar 
     8    6    9 1  
     9    7    8 ar 
    10    9   10 2  
    11    9   11 2  
    12    9   12 am 
    13   12   13 1  
    14   12   17 1  
    15   13   14 1  
    16   14   15 1  
    17   14   16 1  
    18   17   18 1  
    19   18   19 1  
    20   18   20 1  
    21   20   21 1  
    22   20   28 1  
    23   21   22 1  
    24   22   23 ar 
    25   22   27 ar 
    26   23   24 ar 
    27   24   25 ar 
    28   25   26 ar 
    29   26   27 ar 
    30   28   29 1  
    31   28   47 1  
    32   29   30 2  
    33   30   31 1  
    34   30   46 1  
    35   31   32 1  
    36   32   33 1  
    37   33   34 2  
    38   33   35 am 
    39   35   36 1  
    40   36   37 1  
    41   36   45 1  
    42   37   38 1  
    43   37   39 1  
    44   39   40 1  
    45   40   41 ar 
    46   40   45 ar 
    47   41   42 ar 
    48   42   43 ar 
    49   43   44 ar 
    50   44   45 ar 
    51   46   47 2  
    52    1   48 1  
    53    1   49 1  
    54    1   50 1  
    55    4   51 1  
    56    5   52 1  
    57    7   53 1  
    58    8   54 1  
    59   13   55 1  
    60   13   56 1  
    61   14   57 1  
    62   15   58 1  
    63   15   59 1  
    64   15   60 1  
    65   16   61 1  
    66   16   62 1  
    67   16   63 1  
    68   17   64 1  
    69   17   65 1  
    70   18   66 1  
    71   19   67 1  
    72   20   68 1  
    73   21   69 1  
    74   21   70 1  
    75   23   71 1  
    76   24   72 1  
    77   25   73 1  
    78   26   74 1  
    79   27   75 1  
    80   29   76 1  
    81   31   77 1  
    82   31   78 1  
    83   35   79 1  
    84   36   80 1  
    85   37   81 1  
    86   38   82 1  
    87   39   83 1  
    88   39   84 1  
    89   41   85 1  
    90   42   86 1  
    91   43   87 1  
    92   44   88 1  
@<TRIPOS>SUBSTRUCTURE
     1 AB2         1

