### 
### Created by X-TOOL on Mon Sep 10 21:12:54 2018
### 

@<TRIPOS>MOLECULE
1zpb_ligand
   67    67     1     0     0
SMALL
GAST_HUCK


@<TRIPOS>ATOM
      1 CX         11.3020   51.0770   25.3530 C.3       1 995         0.1476
      2 CY         11.6400   51.1450   23.8490 C.3       1 995         0.0846
      3 CZ         11.6440   52.3670   26.1200 C.2       1 995         0.1228
      4 OX          9.9060   50.8660   25.4720 O.3       1 995        -0.3688
      5 S1         10.4880   53.6040   26.4470 S.3       1 995        -0.0036
      6 C2         11.7440   54.4510   27.2370 C.2       1 995         0.0024
      7 C3         12.9470   53.7600   27.2050 C.2       1 995        -0.0304
      8 N1         12.8480   52.5450   26.5420 N.2       1 995        -0.3222
      9 C6         11.2840   49.8310   23.1240 C.3       1 995        -0.0216
     10 C7         11.1950   50.0540   21.6050 C.3       1 995        -0.0174
     11 N2         13.0570   51.3430   23.6730 N.am      1 995        -0.2766
     12 C8         13.6230   52.4290   23.1640 C.2       1 995         0.2024
     13 C9         15.1480   52.3870   23.0880 C.3       1 995         0.1330
     14 C10        15.8060   52.9700   24.3630 C.3       1 995        -0.0063
     15 C11        15.6240   54.4930   24.5370 C.3       1 995        -0.0584
     16 C12        17.3010   52.6320   24.3700 C.3       1 995        -0.0584
     17 N3         15.6190   53.0870   21.8790 N.am      1 995        -0.2654
     18 C13        15.3090   52.7060   20.6210 C.2       1 995         0.1782
     19 C14        15.9040   53.5390   19.4790 C.3       1 995         0.0376
     20 C15        16.8670   52.6720   18.6370 C.3       1 995        -0.0337
     21 C16        17.3410   53.3200   17.3110 C.3       1 995        -0.0447
     22 C17        18.2670   52.3300   16.6000 C.3       1 995        -0.0625
     23 C18        18.1270   54.6240   17.5380 C.3       1 995        -0.0625
     24 O2         14.5860   51.7260   20.3690 O.2       1 995        -0.3969
     25 O3         12.9780   53.4090   22.7770 O.2       1 995        -0.3945
     26 C19        11.4190   48.7530   20.8380 C.3       1 995         0.0626
     27 N4         11.3110   49.0400   19.4040 N.pl3     1 995        -0.2723
     28 C20        11.0380   48.1540   18.4290 C.cat     1 995         0.2882
     29 N5         10.8330   46.8600   18.7200 N.pl3     1 995        -0.2849
     30 N6         10.9710   48.5790   17.1610 N.pl3     1 995        -0.2849
     31 H1         11.8513   50.2375   25.8040 H         1 995         0.0877
     32 H2         11.0848   51.9791   23.3951 H         1 995         0.0614
     33 H3          9.6658   50.0735   25.0063 H         1 995         0.2144
     34 H4         11.6152   55.4226   27.7117 H         1 995         0.0664
     35 H5         13.8684   54.1309   27.6516 H         1 995         0.0533
     36 H6         10.3138   49.4668   23.4927 H         1 995         0.0292
     37 H7         12.0610   49.0811   23.3337 H         1 995         0.0292
     38 H8         11.9617   50.7833   21.3046 H         1 995         0.0300
     39 H9         10.1979   50.4477   21.3587 H         1 995         0.0300
     40 H10        13.6630   50.6004   23.9582 H         1 995         0.1858
     41 H11        15.4516   51.3327   23.0089 H         1 995         0.0802
     42 H12        15.3355   52.4810   25.2287 H         1 995         0.0343
     43 H13        16.1205   54.8181   25.4632 H         1 995         0.0234
     44 H14        14.5513   54.7300   24.5934 H         1 995         0.0234
     45 H15        16.0705   55.0161   23.6785 H         1 995         0.0234
     46 H16        17.4321   51.5469   24.2461 H         1 995         0.0234
     47 H17        17.7439   52.9480   25.3260 H         1 995         0.0234
     48 H18        17.7998   53.1584   23.5429 H         1 995         0.0234
     49 H19        16.2020   53.8908   21.9974 H         1 995         0.1883
     50 H20        16.4561   54.3922   19.9000 H         1 995         0.0502
     51 H21        15.0914   53.9091   18.8366 H         1 995         0.0502
     52 H22        16.3534   51.7306   18.3923 H         1 995         0.0292
     53 H23        17.7557   52.4567   19.2485 H         1 995         0.0292
     54 H24        16.4641   53.5331   16.6820 H         1 995         0.0297
     55 H25        18.6166   52.7694   15.6541 H         1 995         0.0232
     56 H26        17.7184   51.3997   16.3914 H         1 995         0.0232
     57 H27        19.1315   52.1095   17.2434 H         1 995         0.0232
     58 H28        17.4838   55.3556   18.0489 H         1 995         0.0232
     59 H29        18.4480   55.0322   16.5683 H         1 995         0.0232
     60 H30        19.0108   54.4161   18.1591 H         1 995         0.0232
     61 H31        10.6573   48.0143   21.1279 H         1 995         0.0689
     62 H32        12.4196   48.3557   21.0635 H         1 995         0.0689
     63 H33        11.4589   50.0173   19.1143 H         1 995         0.2642
     64 H34        10.6246   46.1894   17.9665 H         1 995         0.2615
     65 H35        10.8841   46.5375   19.6969 H         1 995         0.2615
     66 H36        11.1290   49.5730   16.9420 H         1 995         0.2615
     67 H37        10.7615   47.9120   16.4047 H         1 995         0.2615
@<TRIPOS>BOND
     1    1    2 1  
     2    1    3 1  
     3    1    4 1  
     4    2    9 1  
     5    2   11 1  
     6    3    5 1  
     7    3    8 2  
     8    5    6 1  
     9    6    7 2  
    10    7    8 1  
    11    9   10 1  
    12   10   26 1  
    13   11   12 am 
    14   12   13 1  
    15   12   25 2  
    16   13   14 1  
    17   13   17 1  
    18   14   15 1  
    19   14   16 1  
    20   17   18 am 
    21   18   19 1  
    22   18   24 2  
    23   19   20 1  
    24   20   21 1  
    25   21   22 1  
    26   21   23 1  
    27   26   27 1  
    28   27   28 ar 
    29   28   29 ar 
    30   28   30 ar 
    31    1   31 1  
    32    2   32 1  
    33    4   33 1  
    34    6   34 1  
    35    7   35 1  
    36    9   36 1  
    37    9   37 1  
    38   10   38 1  
    39   10   39 1  
    40   11   40 1  
    41   13   41 1  
    42   14   42 1  
    43   15   43 1  
    44   15   44 1  
    45   15   45 1  
    46   16   46 1  
    47   16   47 1  
    48   16   48 1  
    49   17   49 1  
    50   19   50 1  
    51   19   51 1  
    52   20   52 1  
    53   20   53 1  
    54   21   54 1  
    55   22   55 1  
    56   22   56 1  
    57   22   57 1  
    58   23   58 1  
    59   23   59 1  
    60   23   60 1  
    61   26   61 1  
    62   26   62 1  
    63   27   63 1  
    64   29   64 1  
    65   29   65 1  
    66   30   66 1  
    67   30   67 1  
@<TRIPOS>SUBSTRUCTURE
     1 995         1

