### 
### Created by X-TOOL on Mon Sep 10 21:12:54 2018
### 

@<TRIPOS>MOLECULE
1zpc_ligand
   66    67     1     0     0
SMALL
GAST_HUCK


@<TRIPOS>ATOM
      1 CX         11.3730   51.0630   25.0880 C.3       1 716         0.1476
      2 CY         11.7040   51.1250   23.5590 C.3       1 716         0.0846
      3 CZ         11.5820   52.3130   25.8020 C.2       1 716         0.1228
      4 OX          9.9920   50.7170   25.1400 O.3       1 716        -0.3688
      5 N2         13.1740   51.3280   23.4730 N.am      1 716        -0.2766
      6 C3         11.4700   49.8080   22.7890 C.3       1 716        -0.0216
      7 C4         12.1050   49.7330   21.4140 C.3       1 716        -0.0174
      8 C5         11.5080   48.6020   20.6400 C.3       1 716         0.0626
      9 N6         11.5290   48.9980   19.2300 N.pl3     1 716        -0.2723
     10 C7         11.3190   48.1750   18.1840 C.cat     1 716         0.2882
     11 N8         11.0640   46.8670   18.3780 N.pl3     1 716        -0.2849
     12 N9         11.3710   48.6820   16.9450 N.pl3     1 716        -0.2849
     13 N10        12.6300   52.5620   26.4950 N.2       1 716        -0.3222
     14 C11        12.5680   53.8220   27.0680 C.2       1 716        -0.0304
     15 C12        11.4130   54.4910   26.7570 C.2       1 716         0.0024
     16 S13        10.4060   53.5650   25.7590 S.3       1 716        -0.0036
     17 N14        15.7550   53.1180   21.8330 N.am      1 716        -0.2616
     18 C15        15.3470   52.4030   23.0550 C.3       1 716         0.1333
     19 C16        13.7960   52.4470   23.0680 C.2       1 716         0.2024
     20 O17        13.1730   53.4630   22.7090 O.2       1 716        -0.3945
     21 C18        15.9350   53.0890   24.3480 C.3       1 716        -0.0062
     22 C19        17.4550   53.0230   24.3190 C.3       1 716        -0.0584
     23 C20        15.5740   54.5920   24.4980 C.3       1 716        -0.0584
     24 C21        15.4520   52.7760   20.5480 C.2       1 716         0.2190
     25 C22        16.0000   53.7440   19.4610 C.3       1 716         0.1772
     26 O23        14.7820   51.7740   20.2450 O.2       1 716        -0.3911
     27 O24        14.9890   53.9260   18.4780 O.3       1 716        -0.3594
     28 C25        17.3060   53.2040   18.8110 C.ar      1 716         0.0047
     29 C26        18.4710   52.9490   19.6600 C.ar      1 716        -0.0553
     30 C27        19.6990   52.4470   19.0900 C.ar      1 716        -0.0675
     31 C28        19.8140   52.1840   17.6830 C.ar      1 716        -0.0545
     32 C29        18.6980   52.4170   16.8020 C.ar      1 716         0.0343
     33 C30        17.4380   52.9280   17.3600 C.ar      1 716        -0.0416
     34 CL31       18.8870   52.0820   15.1350 Cl        1 716        -0.0724
     35 H1         11.9845   50.2822   25.5638 H         1 716         0.0877
     36 H2         11.1434   51.9459   23.0881 H         1 716         0.0614
     37 H3          9.8534   49.9007   24.6741 H         1 716         0.2144
     38 H4         13.7541   50.5591   23.7420 H         1 716         0.1858
     39 H5         10.3848   49.6742   22.6686 H         1 716         0.0292
     40 H6         11.8760   48.9846   23.3949 H         1 716         0.0292
     41 H7         13.1878   49.5709   21.5204 H         1 716         0.0300
     42 H8         11.9264   50.6766   20.8776 H         1 716         0.0300
     43 H9         10.4734   48.4230   20.9678 H         1 716         0.0689
     44 H10        12.1022   47.6879   20.7856 H         1 716         0.0689
     45 H11        11.7202   49.9882   19.0206 H         1 716         0.2642
     46 H12        10.9052   46.2479   17.5703 H         1 716         0.2615
     47 H13        11.0278   46.4856   19.3341 H         1 716         0.2615
     48 H14        11.5667   49.6837   16.8062 H         1 716         0.2615
     49 H15        11.2153   48.0701   16.1312 H         1 716         0.2615
     50 H16        13.3533   54.2366   27.6983 H         1 716         0.0533
     51 H17        11.1727   55.4935   27.1081 H         1 716         0.0664
     52 H18        16.3118   53.9391   21.9589 H         1 716         0.1885
     53 H19        15.6953   51.3604   23.0138 H         1 716         0.0802
     54 H20        15.5561   52.5445   25.2254 H         1 716         0.0343
     55 H21        17.8601   53.5025   25.2223 H         1 716         0.0234
     56 H22        17.8279   53.5476   23.4269 H         1 716         0.0234
     57 H23        17.7758   51.9713   24.2869 H         1 716         0.0234
     58 H24        14.4802   54.7054   24.5252 H         1 716         0.0234
     59 H25        15.9797   55.1536   23.6436 H         1 716         0.0234
     60 H26        16.0063   54.9816   25.4314 H         1 716         0.0234
     61 H27        16.2229   54.7137   19.9300 H         1 716         0.0998
     62 H28        14.7721   53.0868   18.0893 H         1 716         0.2164
     63 H29        18.4112   53.1387   20.7256 H         1 716         0.0563
     64 H30        20.5501   52.2653   19.7363 H         1 716         0.0600
     65 H31        20.7475   51.8073   17.2807 H         1 716         0.0567
     66 H32        16.5945   53.1054   16.7026 H         1 716         0.0567
@<TRIPOS>BOND
     1    2    1 1  
     2    1    3 1  
     3    1    4 1  
     4    5    2 1  
     5    2    6 1  
     6    3   13 2  
     7    3   16 1  
     8   19    5 am 
     9    6    7 1  
    10    7    8 1  
    11    8    9 1  
    12    9   10 ar 
    13   10   11 ar 
    14   10   12 ar 
    15   13   14 1  
    16   15   14 2  
    17   16   15 1  
    18   18   17 1  
    19   17   24 am 
    20   18   19 1  
    21   18   21 1  
    22   19   20 2  
    23   21   22 1  
    24   21   23 1  
    25   24   25 1  
    26   24   26 2  
    27   25   27 1  
    28   25   28 1  
    29   28   29 ar 
    30   28   33 ar 
    31   29   30 ar 
    32   30   31 ar 
    33   31   32 ar 
    34   32   33 ar 
    35   32   34 1  
    36    1   35 1  
    37    2   36 1  
    38    4   37 1  
    39    5   38 1  
    40    6   39 1  
    41    6   40 1  
    42    7   41 1  
    43    7   42 1  
    44    8   43 1  
    45    8   44 1  
    46    9   45 1  
    47   11   46 1  
    48   11   47 1  
    49   12   48 1  
    50   12   49 1  
    51   14   50 1  
    52   15   51 1  
    53   17   52 1  
    54   18   53 1  
    55   21   54 1  
    56   22   55 1  
    57   22   56 1  
    58   22   57 1  
    59   23   58 1  
    60   23   59 1  
    61   23   60 1  
    62   25   61 1  
    63   27   62 1  
    64   29   63 1  
    65   30   64 1  
    66   31   65 1  
    67   33   66 1  
@<TRIPOS>SUBSTRUCTURE
     1 716         1

