### 
### Created by X-TOOL on Mon Sep 10 21:12:53 2018
### 

@<TRIPOS>MOLECULE
1zrz_ligand
   56    60     1     0     0
SMALL
GAST_HUCK


@<TRIPOS>ATOM
      1 CBD       -11.2450   24.7870   23.0670 C.3       1 BI1        -0.0433
      2 NBC       -10.9000   23.6670   22.2090 N.4       1 BI1         0.2310
      3 CBE       -10.9470   22.3110   22.7580 C.3       1 BI1        -0.0433
      4 CBB       -10.5320   24.0460   20.8220 C.3       1 BI1        -0.0299
      5 CBA       -10.1970   22.8530   19.9290 C.3       1 BI1         0.0144
      6 CAY        -8.8690   23.1630   19.2510 C.3       1 BI1         0.0586
      7 NAH        -8.5150   22.0610   18.3450 N.pl3     1 BI1        -0.2591
      8 CAW        -8.0690   20.8400   18.7800 C.2       1 BI1         0.0421
      9 CAE        -8.5850   22.0960   16.9930 C.ar      1 BI1         0.0710
     10 CAF        -8.9720   23.1040   16.0530 C.ar      1 BI1        -0.0411
     11 CAA        -8.9440   22.8450   14.6690 C.ar      1 BI1        -0.0750
     12 CAB        -8.5300   21.5660   14.1790 C.ar      1 BI1        -0.0775
     13 CAC        -8.1390   20.5410   15.0950 C.ar      1 BI1        -0.0722
     14 CAD        -8.1700   20.8210   16.5000 C.ar      1 BI1        -0.0132
     15 CAG        -7.8580   20.0740   17.6410 C.2       1 BI1        -0.0050
     16 CAI        -7.3510   18.6300   17.7670 C.2       1 BI1         0.0442
     17 CAT        -6.2980   18.0070   16.9250 C.2       1 BI1         0.2236
     18 OAZ        -5.6880   18.6160   15.9810 O.2       1 BI1        -0.3720
     19 NAU        -6.0130   16.7280   17.2250 N.am      1 BI1        -0.2037
     20 CAV        -6.8050   16.4080   18.2330 C.2       1 BI1         0.2236
     21 OAX        -6.7460   15.2420   18.7350 O.2       1 BI1        -0.3720
     22 CAJ        -7.7110   17.5110   18.6850 C.2       1 BI1         0.0442
     23 CAK        -8.7160   17.4240   19.8290 C.2       1 BI1        -0.0052
     24 CAM       -10.0040   18.0400   19.9650 C.ar      1 BI1        -0.0134
     25 CAP       -10.8120   18.9050   19.1480 C.ar      1 BI1        -0.0722
     26 CAQ       -12.0730   19.3400   19.6200 C.ar      1 BI1        -0.0775
     27 CAR       -12.5100   18.9080   20.8960 C.ar      1 BI1        -0.0750
     28 CAS       -11.7210   18.0440   21.7220 C.ar      1 BI1        -0.0413
     29 CAN       -10.4360   17.6020   21.2400 C.ar      1 BI1         0.0686
     30 NAO        -9.4660   16.7930   21.7840 N.pl3     1 BI1        -0.2735
     31 CAL        -8.4020   16.6600   20.9590 C.2       1 BI1         0.0393
     32 H1        -11.5025   24.4150   24.0697 H         1 BI1         0.0777
     33 H2        -12.1068   25.3226   22.6421 H         1 BI1         0.0777
     34 H3        -10.3870   25.4716   23.1391 H         1 BI1         0.0777
     35 H4         -9.9308   23.7243   22.4800 H         1 BI1         0.2028
     36 H5        -10.6586   21.5899   21.9790 H         1 BI1         0.0777
     37 H6        -11.9681   22.0900   23.1023 H         1 BI1         0.0777
     38 H7        -10.2496   22.2340   23.6052 H         1 BI1         0.0777
     39 H8         -9.6532   24.7063   20.8637 H         1 BI1         0.0815
     40 H9        -11.3775   24.5886   20.3741 H         1 BI1         0.0815
     41 H10       -10.9838   22.7144   19.1729 H         1 BI1         0.0343
     42 H11       -10.1070   21.9402   20.5361 H         1 BI1         0.0343
     43 H12        -8.0850   23.2770   20.0141 H         1 BI1         0.0609
     44 H13        -8.9595   24.0963   18.6759 H         1 BI1         0.0609
     45 H14        -7.9116   20.5321   19.8126 H         1 BI1         0.1003
     46 H15        -9.2899   24.0768   16.4103 H         1 BI1         0.0550
     47 H16        -9.2381   23.6198   13.9702 H         1 BI1         0.0540
     48 H17        -8.5129   21.3743   13.1122 H         1 BI1         0.0519
     49 H18        -7.8245   19.5687   14.7332 H         1 BI1         0.0549
     50 H19        -5.3398   16.1396   16.7772 H         1 BI1         0.2196
     51 H20       -10.4563   19.2224   18.1745 H         1 BI1         0.0549
     52 H21       -12.6934   19.9921   19.0159 H         1 BI1         0.0519
     53 H22       -13.4747   19.2427   21.2599 H         1 BI1         0.0540
     54 H23       -12.0838   17.7277   22.6933 H         1 BI1         0.0550
     55 H24        -9.5405   16.3430   22.7075 H         1 BI1         0.2306
     56 H25        -7.4958   16.0825   21.1361 H         1 BI1         0.1001
@<TRIPOS>BOND
     1    1    2 1  
     2    2    3 1  
     3    2    4 1  
     4    4    5 1  
     5    5    6 1  
     6    6    7 1  
     7    7    8 1  
     8    7    9 1  
     9    8   15 2  
    10    9   10 ar 
    11    9   14 ar 
    12   10   11 ar 
    13   11   12 ar 
    14   12   13 ar 
    15   13   14 ar 
    16   14   15 1  
    17   15   16 1  
    18   16   17 1  
    19   16   22 2  
    20   17   18 2  
    21   17   19 am 
    22   19   20 am 
    23   20   21 2  
    24   20   22 1  
    25   22   23 1  
    26   23   24 1  
    27   23   31 2  
    28   24   25 ar 
    29   24   29 ar 
    30   25   26 ar 
    31   26   27 ar 
    32   27   28 ar 
    33   28   29 ar 
    34   29   30 1  
    35   30   31 1  
    36    1   32 1  
    37    1   33 1  
    38    1   34 1  
    39    2   35 1  
    40    3   36 1  
    41    3   37 1  
    42    3   38 1  
    43    4   39 1  
    44    4   40 1  
    45    5   41 1  
    46    5   42 1  
    47    6   43 1  
    48    6   44 1  
    49    8   45 1  
    50   10   46 1  
    51   11   47 1  
    52   12   48 1  
    53   13   49 1  
    54   19   50 1  
    55   25   51 1  
    56   26   52 1  
    57   27   53 1  
    58   28   54 1  
    59   30   55 1  
    60   31   56 1  
@<TRIPOS>SUBSTRUCTURE
     1 BI1         1

