### 
### Created by X-TOOL on Mon Sep 10 21:12:45 2018
### 

@<TRIPOS>MOLECULE
1zsb_ligand
   19    19     1     0     0
SMALL
GAST_HUCK


@<TRIPOS>ATOM
      1 C1         -5.1340    2.1990   15.9600 C.2       1 AZM         0.2562
      2 C2         -4.7810    4.3180   14.5450 C.2       1 AZM         0.2252
      3 C3         -6.0810    5.9690   13.2980 C.2       1 AZM         0.2120
      4 C4         -6.0920    7.0070   12.1240 C.3       1 AZM         0.0337
      5 N1         -5.3670   -0.4460   16.5460 N.am      1 AZM        -0.2565
      6 N2         -3.7310    3.4610   14.8540 N.2       1 AZM        -0.2573
      7 N3         -3.8100    2.3000   15.6230 N.2       1 AZM        -0.2476
      8 N4         -4.9530    5.5040   13.8440 N.am      1 AZM        -0.1925
      9 O1         -5.5460    1.1270   18.3740 O.2       1 AZM        -0.1452
     10 O2         -7.3980    1.1650   16.8250 O.2       1 AZM        -0.1452
     11 O3         -7.2150    5.6130   13.6650 O.2       1 AZM        -0.3804
     12 S1         -5.9610    0.9490   16.9910 S.o2      1 AZM         0.0991
     13 S2         -6.0580    3.4610   15.2370 S.3       1 AZM         0.0874
     14 H1         -7.1316    7.2358   11.8467 H         1 AZM         0.0474
     15 H2         -5.5655    6.5841   11.2557 H         1 AZM         0.0474
     16 H3         -5.5868    7.9297   12.4456 H         1 AZM         0.0474
     17 H4         -5.6822   -1.2869   16.9859 H         1 AZM         0.1638
     18 H5         -4.6759   -0.4879   15.8245 H         1 AZM         0.1638
     19 H6         -4.1399    6.0758   13.7351 H         1 AZM         0.2411
@<TRIPOS>BOND
     1    1   13 1  
     2    1   12 1  
     3    1    7 2  
     4    7    6 1  
     5    6    2 2  
     6    2    8 am 
     7    2   13 1  
     8    8    3 am 
     9    3   11 2  
    10    3    4 1  
    11   12    5 am 
    12   12    9 2  
    13   12   10 2  
    14    4   14 1  
    15    4   15 1  
    16    4   16 1  
    17    5   17 1  
    18    5   18 1  
    19    8   19 1  
@<TRIPOS>SUBSTRUCTURE
     1 AZM         1

