### 
### Created by X-TOOL on Mon Sep 10 21:12:54 2018
### 

@<TRIPOS>MOLECULE
1zsf_ligand
  100   102     1     0     0
SMALL
GAST_HUCK


@<TRIPOS>ATOM
      1 O1        -21.9020   40.1520   30.4450 O.2       1 0ZS        -0.3775
      2 C         -21.0870   39.3320   30.8210 C.2       1 0ZS         0.3205
      3 O2        -20.9950   38.8920   32.1020 O.3       1 0ZS        -0.2581
      4 CT        -22.1800   39.0160   32.9650 C.3       1 0ZS         0.0905
      5 C1        -21.8430   38.3730   34.2980 C.3       1 0ZS        -0.0320
      6 C2        -23.3200   38.2870   32.2650 C.3       1 0ZS        -0.0320
      7 C3        -22.4510   40.5070   33.1000 C.3       1 0ZS        -0.0320
      8 N         -20.0650   38.7960   30.1080 N.am      1 0ZS        -0.2548
      9 CA        -19.8070   39.1060   28.7090 C.3       1 0ZS         0.0842
     10 C         -20.1440   37.9280   27.7750 C.3       1 0ZS         0.1193
     11 OR        -20.2140   38.4230   26.4400 O.3       1 0ZS        -0.3841
     12 CB        -18.3410   39.5200   28.5370 C.3       1 0ZS         0.0065
     13 CG        -18.0850   40.9850   28.8320 C.ar      1 0ZS        -0.0408
     14 CD1       -19.0970   41.9200   28.7190 C.ar      1 0ZS        -0.0603
     15 CD2       -16.8210   41.4090   29.2150 C.ar      1 0ZS        -0.0603
     16 CE1       -18.8560   43.2570   28.9760 C.ar      1 0ZS        -0.0686
     17 CE2       -16.5680   42.7460   29.4670 C.ar      1 0ZS        -0.0686
     18 CZ        -17.5920   43.6710   29.3510 C.ar      1 0ZS        -0.0687
     19 CM        -21.4900   37.2860   28.1590 C.3       1 0ZS        -0.0025
     20 N         -21.8880   36.2290   27.2250 N.4       1 0ZS         0.2495
     21 CA        -23.2940   36.2000   26.8770 C.3       1 0ZS         0.0763
     22 C         -23.6240   37.1520   25.7250 C.2       1 0ZS         0.2289
     23 O         -23.9780   38.3130   25.9350 O.2       1 0ZS        -0.3905
     24 CB        -24.1970   36.5660   28.0640 C.3       1 0ZS         0.0416
     25 CG        -25.6620   36.5500   27.6340 C.ar      1 0ZS        -0.0353
     26 CD1       -26.1470   35.4760   26.9040 C.ar      1 0ZS        -0.0600
     27 CD2       -26.5140   37.5930   27.9410 C.ar      1 0ZS        -0.0600
     28 CE1       -27.4640   35.4350   26.4880 C.ar      1 0ZS        -0.0686
     29 CE2       -27.8330   37.5610   27.5410 C.ar      1 0ZS        -0.0686
     30 CZ        -28.3040   36.4880   26.8040 C.ar      1 0ZS        -0.0687
     31 N         -23.6270   36.6240   24.5050 N.am      1 0ZS        -0.2608
     32 CA        -23.8600   37.4790   23.3450 C.3       1 0ZS         0.1326
     33 C         -24.7490   36.8140   22.3120 C.2       1 0ZS         0.2041
     34 O         -24.5480   35.6740   21.9240 O.2       1 0ZS        -0.3944
     35 CB        -22.5170   37.9150   22.7610 C.3       1 0ZS        -0.0008
     36 CG        -22.6210   38.9800   21.6810 C.3       1 0ZS         0.0044
     37 CD        -22.8940   38.3370   20.3300 C.2       1 0ZS         0.0350
     38 OE1       -22.8390   39.0310   19.2940 O.co2     1 0ZS        -0.5690
     39 OE2       -23.0460   37.0970   20.2920 O.co2     1 0ZS        -0.5690
     40 N         -25.7540   37.5420   21.8360 N.am      1 0ZS        -0.2619
     41 CA        -26.5920   36.9600   20.7790 C.3       1 0ZS         0.1401
     42 C         -26.8450   38.0000   19.6920 C.2       1 0ZS         0.2012
     43 O         -27.2010   39.1410   19.9740 O.2       1 0ZS        -0.3946
     44 CB        -27.9010   36.4210   21.3390 C.3       1 0ZS         0.0214
     45 CG        -28.8940   37.4590   21.8350 C.ar      1 0ZS        -0.0386
     46 CD1       -29.6950   38.1760   20.9680 C.ar      1 0ZS        -0.0601
     47 CD2       -29.0100   37.7110   23.1950 C.ar      1 0ZS        -0.0601
     48 CE1       -30.5810   39.1200   21.4310 C.ar      1 0ZS        -0.0686
     49 CE2       -29.9060   38.6550   23.6670 C.ar      1 0ZS        -0.0686
     50 CZ        -30.7020   39.3640   22.7900 C.ar      1 0ZS        -0.0687
     51 N         -26.6320   37.5980   18.4320 N.am      1 0ZS        -0.2988
     52 H1        -22.7101   38.4478   34.9708 H         1 0ZS         0.0260
     53 H2        -20.9837   38.8914   34.7484 H         1 0ZS         0.0260
     54 H3        -21.5911   37.3138   34.1410 H         1 0ZS         0.0260
     55 H4        -24.2303   38.3550   32.8788 H         1 0ZS         0.0260
     56 H5        -23.0492   37.2299   32.1267 H         1 0ZS         0.0260
     57 H6        -23.5037   38.7498   31.2842 H         1 0ZS         0.0260
     58 H7        -23.3325   40.6630   33.7392 H         1 0ZS         0.0260
     59 H8        -22.6388   40.9371   32.1052 H         1 0ZS         0.0260
     60 H9        -21.5777   40.9989   33.5533 H         1 0ZS         0.0260
     61 H10       -19.4546   38.1519   30.5691 H         1 0ZS         0.1873
     62 H11       -20.4447   39.9560   28.4248 H         1 0ZS         0.0606
     63 H12       -19.3511   37.1689   27.8461 H         1 0ZS         0.0672
     64 H13       -20.4214   37.7087   25.8491 H         1 0ZS         0.2101
     65 H14       -18.0420   39.3172   27.4980 H         1 0ZS         0.0449
     66 H15       -17.7265   38.9153   29.2201 H         1 0ZS         0.0449
     67 H16       -20.0907   41.6013   28.4256 H         1 0ZS         0.0557
     68 H17       -16.0216   40.6842   29.3182 H         1 0ZS         0.0557
     69 H18       -19.6582   43.9802   28.8834 H         1 0ZS         0.0599
     70 H19       -15.5733   43.0676   29.7537 H         1 0ZS         0.0599
     71 H20       -17.4023   44.7188   29.5541 H         1 0ZS         0.0559
     72 H21       -22.2658   38.0658   28.1623 H         1 0ZS         0.0841
     73 H22       -21.4010   36.8530   29.1663 H         1 0ZS         0.0841
     74 H23       -21.6531   35.3418   27.6418 H         1 0ZS         0.2038
     75 H24       -21.3603   36.3511   26.3749 H         1 0ZS         0.2038
     76 H25       -23.5359   35.1747   26.5605 H         1 0ZS         0.1123
     77 H26       -23.9346   37.5717   28.4241 H         1 0ZS         0.0507
     78 H27       -24.0475   35.8362   28.8733 H         1 0ZS         0.0507
     79 H28       -25.4830   34.6559   26.6558 H         1 0ZS         0.0557
     80 H29       -26.1425   38.4436   28.5010 H         1 0ZS         0.0557
     81 H30       -27.8344   34.5885   25.9212 H         1 0ZS         0.0599
     82 H31       -28.4999   38.3744   27.8031 H         1 0ZS         0.0599
     83 H32       -29.3361   36.4727   26.4728 H         1 0ZS         0.0559
     84 H33       -23.4701   35.6440   24.3823 H         1 0ZS         0.1885
     85 H34       -24.3839   38.3817   23.6924 H         1 0ZS         0.0801
     86 H35       -22.0266   37.0311   22.3271 H         1 0ZS         0.0330
     87 H36       -21.8985   38.3130   23.5789 H         1 0ZS         0.0330
     88 H37       -21.6757   39.5404   21.6317 H         1 0ZS         0.0433
     89 H38       -23.4428   39.6682   21.9280 H         1 0ZS         0.0433
     90 H39       -25.9347   38.4605   22.1877 H         1 0ZS         0.1885
     91 H40       -26.0439   36.1185   20.3302 H         1 0ZS         0.0823
     92 H41       -27.6580   35.7584   22.1827 H         1 0ZS         0.0474
     93 H42       -28.3918   35.8389   20.5451 H         1 0ZS         0.0474
     94 H43       -29.6238   37.9910   19.9023 H         1 0ZS         0.0557
     95 H44       -28.3916   37.1621   23.8960 H         1 0ZS         0.0557
     96 H45       -31.1893   39.6775   20.7280 H         1 0ZS         0.0599
     97 H46       -29.9830   38.8386   24.7326 H         1 0ZS         0.0599
     98 H47       -31.4092   40.0986   23.1577 H         1 0ZS         0.0559
     99 H48       -26.7797   38.2322   17.6731 H         1 0ZS         0.1815
    100 H49       -26.3253   36.6637   18.2503 H         1 0ZS         0.1815
@<TRIPOS>BOND
     1    1    2 2  
     2    2    3 1  
     3    2    8 am 
     4    3    4 1  
     5    4    5 1  
     6    4    6 1  
     7    4    7 1  
     8    8    9 1  
     9    9   10 1  
    10    9   12 1  
    11   10   11 1  
    12   10   19 1  
    13   12   13 1  
    14   13   14 ar 
    15   13   15 ar 
    16   14   16 ar 
    17   15   17 ar 
    18   16   18 ar 
    19   17   18 ar 
    20   19   20 1  
    21   20   21 1  
    22   21   22 1  
    23   21   24 1  
    24   22   23 2  
    25   22   31 am 
    26   24   25 1  
    27   25   26 ar 
    28   25   27 ar 
    29   26   28 ar 
    30   27   29 ar 
    31   28   30 ar 
    32   29   30 ar 
    33   31   32 1  
    34   32   33 1  
    35   32   35 1  
    36   33   34 2  
    37   33   40 am 
    38   35   36 1  
    39   36   37 1  
    40   37   38 ar 
    41   37   39 ar 
    42   40   41 1  
    43   41   42 1  
    44   41   44 1  
    45   42   43 2  
    46   42   51 am 
    47   44   45 1  
    48   45   46 ar 
    49   45   47 ar 
    50   46   48 ar 
    51   47   49 ar 
    52   48   50 ar 
    53   49   50 ar 
    54    5   52 1  
    55    5   53 1  
    56    5   54 1  
    57    6   55 1  
    58    6   56 1  
    59    6   57 1  
    60    7   58 1  
    61    7   59 1  
    62    7   60 1  
    63    8   61 1  
    64    9   62 1  
    65   10   63 1  
    66   11   64 1  
    67   12   65 1  
    68   12   66 1  
    69   14   67 1  
    70   15   68 1  
    71   16   69 1  
    72   17   70 1  
    73   18   71 1  
    74   19   72 1  
    75   19   73 1  
    76   20   74 1  
    77   20   75 1  
    78   21   76 1  
    79   24   77 1  
    80   24   78 1  
    81   26   79 1  
    82   27   80 1  
    83   28   81 1  
    84   29   82 1  
    85   30   83 1  
    86   31   84 1  
    87   32   85 1  
    88   35   86 1  
    89   35   87 1  
    90   36   88 1  
    91   36   89 1  
    92   40   90 1  
    93   41   91 1  
    94   44   92 1  
    95   44   93 1  
    96   46   94 1  
    97   47   95 1  
    98   48   96 1  
    99   49   97 1  
   100   50   98 1  
   101   51   99 1  
   102   51  100 1  
@<TRIPOS>SUBSTRUCTURE
     1 0ZS         1

