### 
### Created by X-TOOL on Mon Sep 10 21:12:54 2018
### 

@<TRIPOS>MOLECULE
1zsr_ligand
  100   102     1     0     0
SMALL
GAST_HUCK


@<TRIPOS>ATOM
      1 O1         -9.3250   14.2990   30.1000 O.2       1 0ZT        -0.3775
      2 C         -10.1740   14.9640   30.6740 C.2       1 0ZT         0.3205
      3 O2        -10.1780   15.2960   32.0080 O.3       1 0ZT        -0.2581
      4 CT         -8.9510   15.3790   32.8530 C.3       1 0ZT         0.0905
      5 C1         -9.4190   15.8350   34.2200 C.3       1 0ZT        -0.0320
      6 C2         -7.9810   16.3910   32.2420 C.3       1 0ZT        -0.0320
      7 C3         -8.3160   13.9910   32.9410 C.3       1 0ZT        -0.0320
      8 N         -11.2790   15.5450   30.0780 N.am      1 0ZT        -0.2548
      9 CA        -11.6190   15.3290   28.6690 C.3       1 0ZT         0.0842
     10 C         -11.2260   16.5350   27.7720 C.3       1 0ZT         0.1193
     11 OS        -11.9520   17.6850   28.1510 O.3       1 0ZT        -0.3841
     12 CB        -13.1210   15.0160   28.5300 C.3       1 0ZT         0.0065
     13 CG        -13.5290   13.7230   29.1870 C.ar      1 0ZT        -0.0408
     14 CD1       -14.5620   13.6940   30.1080 C.ar      1 0ZT        -0.0603
     15 CD2       -12.8410   12.5390   28.9140 C.ar      1 0ZT        -0.0603
     16 CE1       -14.9050   12.5130   30.7540 C.ar      1 0ZT        -0.0686
     17 CE2       -13.1790   11.3490   29.5570 C.ar      1 0ZT        -0.0686
     18 CZ        -14.2130   11.3390   30.4800 C.ar      1 0ZT        -0.0687
     19 CM         -9.7150   16.8040   27.9000 C.3       1 0ZT        -0.0025
     20 N          -9.3020   18.0070   27.1870 N.4       1 0ZT         0.2495
     21 CA         -7.9240   17.9540   26.6820 C.3       1 0ZT         0.0763
     22 C          -7.7960   16.9300   25.5580 C.2       1 0ZT         0.2289
     23 O          -7.8200   15.7180   25.7950 O.2       1 0ZT        -0.3905
     24 CB         -6.9330   17.5960   27.8050 C.3       1 0ZT         0.0416
     25 CG         -5.5190   17.3930   27.3290 C.ar      1 0ZT        -0.0353
     26 CD1        -4.7670   16.3230   27.7960 C.ar      1 0ZT        -0.0600
     27 CD2        -4.9370   18.2760   26.4220 C.ar      1 0ZT        -0.0600
     28 CE1        -3.4560   16.1260   27.3710 C.ar      1 0ZT        -0.0686
     29 CE2        -3.6250   18.0880   25.9880 C.ar      1 0ZT        -0.0686
     30 CZ         -2.8840   17.0070   26.4660 C.ar      1 0ZT        -0.0687
     31 N          -7.6480   17.4310   24.3360 N.am      1 0ZT        -0.2608
     32 CA         -7.5190   16.5800   23.1630 C.3       1 0ZT         0.1326
     33 C          -6.6800   17.3070   22.1150 C.2       1 0ZT         0.2041
     34 O          -6.9320   18.4700   21.7920 O.2       1 0ZT        -0.3944
     35 CB         -8.9200   16.2570   22.6200 C.3       1 0ZT        -0.0008
     36 CG         -8.9870   15.2820   21.4480 C.3       1 0ZT         0.0044
     37 CD         -8.4830   15.8760   20.1390 C.2       1 0ZT         0.0350
     38 OE1        -8.6500   17.0990   19.9280 O.co2     1 0ZT        -0.5690
     39 OE2        -7.9350   15.1150   19.3110 O.co2     1 0ZT        -0.5690
     40 N          -5.6640   16.6320   21.5980 N.am      1 0ZT        -0.2619
     41 CA         -4.8360   17.2410   20.5850 C.3       1 0ZT         0.1401
     42 C          -4.5600   16.2460   19.4800 C.2       1 0ZT         0.2012
     43 O          -4.2600   15.0850   19.7340 O.2       1 0ZT        -0.3946
     44 CB         -3.5350   17.7640   21.2040 C.3       1 0ZT         0.0214
     45 CG         -2.6720   16.7020   21.8240 C.ar      1 0ZT        -0.0386
     46 CD1        -1.5800   16.1910   21.1410 C.ar      1 0ZT        -0.0601
     47 CD2        -2.9270   16.2400   23.1110 C.ar      1 0ZT        -0.0601
     48 CE1        -0.7470   15.2400   21.7320 C.ar      1 0ZT        -0.0686
     49 CE2        -2.1010   15.2870   23.7090 C.ar      1 0ZT        -0.0686
     50 CZ         -1.0080   14.7890   23.0170 C.ar      1 0ZT        -0.0687
     51 N          -4.6900   16.6950   18.2440 N.am      1 0ZT        -0.2988
     52 H1         -8.5544   15.9165   34.8952 H         1 0ZT         0.0260
     53 H2        -10.1334   15.1036   34.6258 H         1 0ZT         0.0260
     54 H3         -9.9088   16.8159   34.1315 H         1 0ZT         0.0260
     55 H4         -7.0759   16.4531   32.8641 H         1 0ZT         0.0260
     56 H5         -8.4626   17.3789   32.1958 H         1 0ZT         0.0260
     57 H6         -7.7066   16.0690   31.2266 H         1 0ZT         0.0260
     58 H7         -7.4097   14.0412   33.5624 H         1 0ZT         0.0260
     59 H8         -8.0496   13.6449   31.9314 H         1 0ZT         0.0260
     60 H9         -9.0317   13.2883   33.3926 H         1 0ZT         0.0260
     61 H10       -11.8684   16.1350   30.6298 H         1 0ZT         0.1873
     62 H11       -11.0531   14.4536   28.3176 H         1 0ZT         0.0606
     63 H12       -11.4607   16.2937   26.7248 H         1 0ZT         0.0672
     64 H13       -11.7019   18.4135   27.5949 H         1 0ZT         0.2101
     65 H14       -13.3663   14.9550   27.4594 H         1 0ZT         0.0449
     66 H15       -13.6916   15.8358   28.9908 H         1 0ZT         0.0449
     67 H16       -15.1096   14.6034   30.3277 H         1 0ZT         0.0557
     68 H17       -12.0326   12.5452   28.1919 H         1 0ZT         0.0557
     69 H18       -15.7151   12.5069   31.4743 H         1 0ZT         0.0599
     70 H19       -12.6363   10.4369   29.3364 H         1 0ZT         0.0599
     71 H20       -14.4811   10.4188   30.9864 H         1 0ZT         0.0559
     72 H21        -9.1669   15.9437   27.4882 H         1 0ZT         0.0841
     73 H22        -9.4661   16.9217   28.9650 H         1 0ZT         0.0841
     74 H23        -9.3800   18.7913   27.8154 H         1 0ZT         0.2038
     75 H24        -9.9223   18.1409   26.4039 H         1 0ZT         0.2038
     76 H25        -7.6630   18.9466   26.2862 H         1 0ZT         0.1123
     77 H26        -7.2738   16.6665   28.2844 H         1 0ZT         0.0507
     78 H27        -6.9363   18.4118   28.5429 H         1 0ZT         0.0507
     79 H28        -5.2080   15.6298   28.5031 H         1 0ZT         0.0557
     80 H29        -5.5098   19.1177   26.0498 H         1 0ZT         0.0557
     81 H30        -2.8836   15.2856   27.7468 H         1 0ZT         0.0599
     82 H31        -3.1821   18.7801   25.2810 H         1 0ZT         0.0599
     83 H32        -1.8642   16.8563   26.1309 H         1 0ZT         0.0559
     84 H33        -7.6246   18.4239   24.2191 H         1 0ZT         0.1885
     85 H34        -7.0156   15.6425   23.4418 H         1 0ZT         0.0801
     86 H35        -9.3788   17.2024   22.2950 H         1 0ZT         0.0330
     87 H36        -9.5079   15.8287   23.4452 H         1 0ZT         0.0330
     88 H37       -10.0337   14.9728   21.3107 H         1 0ZT         0.0433
     89 H38        -8.3735   14.4019   21.6908 H         1 0ZT         0.0433
     90 H39        -5.4711   15.7015   21.9094 H         1 0ZT         0.1885
     91 H40        -5.3802   18.0945   20.1545 H         1 0ZT         0.0823
     92 H41        -3.7946   18.4950   21.9839 H         1 0ZT         0.0474
     93 H42        -2.9537   18.2617   20.4138 H         1 0ZT         0.0474
     94 H43        -1.3700   16.5344   20.1345 H         1 0ZT         0.0557
     95 H44        -3.7799   16.6258   23.6576 H         1 0ZT         0.0557
     96 H45         0.1056   14.8532   21.1856 H         1 0ZT         0.0599
     97 H46        -2.3138   14.9370   24.7126 H         1 0ZT         0.0599
     98 H47        -0.3611   14.0513   23.4777 H         1 0ZT         0.0559
     99 H48        -4.5210   16.0848   17.4700 H         1 0ZT         0.1815
    100 H49        -4.9573   17.6450   18.0827 H         1 0ZT         0.1815
@<TRIPOS>BOND
     1    1    2 2  
     2    2    3 1  
     3    2    8 am 
     4    3    4 1  
     5    4    5 1  
     6    4    6 1  
     7    4    7 1  
     8    8    9 1  
     9    9   10 1  
    10    9   12 1  
    11   10   11 1  
    12   10   19 1  
    13   12   13 1  
    14   13   14 ar 
    15   13   15 ar 
    16   14   16 ar 
    17   15   17 ar 
    18   16   18 ar 
    19   17   18 ar 
    20   19   20 1  
    21   20   21 1  
    22   21   22 1  
    23   21   24 1  
    24   22   23 2  
    25   22   31 am 
    26   24   25 1  
    27   25   26 ar 
    28   25   27 ar 
    29   26   28 ar 
    30   27   29 ar 
    31   28   30 ar 
    32   29   30 ar 
    33   31   32 1  
    34   32   33 1  
    35   32   35 1  
    36   33   34 2  
    37   33   40 am 
    38   35   36 1  
    39   36   37 1  
    40   37   38 ar 
    41   37   39 ar 
    42   40   41 1  
    43   41   42 1  
    44   41   44 1  
    45   42   43 2  
    46   42   51 am 
    47   44   45 1  
    48   45   46 ar 
    49   45   47 ar 
    50   46   48 ar 
    51   47   49 ar 
    52   48   50 ar 
    53   49   50 ar 
    54    5   52 1  
    55    5   53 1  
    56    5   54 1  
    57    6   55 1  
    58    6   56 1  
    59    6   57 1  
    60    7   58 1  
    61    7   59 1  
    62    7   60 1  
    63    8   61 1  
    64    9   62 1  
    65   10   63 1  
    66   11   64 1  
    67   12   65 1  
    68   12   66 1  
    69   14   67 1  
    70   15   68 1  
    71   16   69 1  
    72   17   70 1  
    73   18   71 1  
    74   19   72 1  
    75   19   73 1  
    76   20   74 1  
    77   20   75 1  
    78   21   76 1  
    79   24   77 1  
    80   24   78 1  
    81   26   79 1  
    82   27   80 1  
    83   28   81 1  
    84   29   82 1  
    85   30   83 1  
    86   31   84 1  
    87   32   85 1  
    88   35   86 1  
    89   35   87 1  
    90   36   88 1  
    91   36   89 1  
    92   40   90 1  
    93   41   91 1  
    94   44   92 1  
    95   44   93 1  
    96   46   94 1  
    97   47   95 1  
    98   48   96 1  
    99   49   97 1  
   100   50   98 1  
   101   51   99 1  
   102   51  100 1  
@<TRIPOS>SUBSTRUCTURE
     1 0ZT         1

