### 
### Created by X-TOOL on Mon Sep 10 21:12:55 2018
### 

@<TRIPOS>MOLECULE
1ztq_ligand
   58    61     1     0     0
SMALL
GAST_HUCK


@<TRIPOS>ATOM
      1 C1         24.9600   72.5750   49.6490 C.ar      1 033        -0.0739
      2 C2         24.8400   71.2790   49.0370 C.ar      1 033        -0.0670
      3 C3         24.2120   71.1820   47.7530 C.ar      1 033        -0.0008
      4 C4         23.6910   72.3300   47.0780 C.ar      1 033         0.1284
      5 C5         23.8220   73.6280   47.7040 C.ar      1 033        -0.0282
      6 C6         24.4500   73.7450   48.9890 C.ar      1 033        -0.0709
      7 C7         16.1290   69.4050   33.0630 C.3       1 033        -0.0152
      8 C8         16.4870   68.8660   31.6790 C.3       1 033        -0.0594
      9 C9         15.9630   70.9410   32.9880 C.3       1 033        -0.0594
     10 C11        23.9740   70.0510   46.9620 C.2       1 033        -0.0216
     11 C12        23.3170   70.6640   45.8410 C.2       1 033         0.1977
     12 O13        23.1450   72.0300   45.8970 O.3       1 033        -0.2411
     13 C14        22.8970   69.8510   44.7730 C.2       1 033         0.2664
     14 N15        21.9880   70.4250   43.8970 N.am      1 033        -0.2295
     15 C16        21.5640   69.8670   42.7010 C.ar      1 033         0.0685
     16 O17        23.3350   68.6890   44.6540 O.2       1 033        -0.3706
     17 C18        21.7420   70.6470   41.5180 C.ar      1 033        -0.0388
     18 C19        21.3290   70.1390   40.2530 C.ar      1 033        -0.0661
     19 C20        20.7280   68.8320   40.1400 C.ar      1 033        -0.0320
     20 C21        20.5540   68.0550   41.3350 C.ar      1 033        -0.0661
     21 C22        20.9640   68.5580   42.6050 C.ar      1 033        -0.0388
     22 C27        20.2880   68.3130   38.7850 C.ar      1 033        -0.0274
     23 C28        21.1440   68.4370   37.6250 C.ar      1 033        -0.0560
     24 C29        20.7180   67.9580   36.3400 C.ar      1 033        -0.0370
     25 C30        19.4280   67.3440   36.2020 C.ar      1 033         0.1060
     26 C31        18.5750   67.2120   37.3470 C.ar      1 033        -0.0370
     27 C32        18.9990   67.6890   38.6240 C.ar      1 033        -0.0560
     28 S37        18.8750   66.7620   34.5920 S.o2      1 033         0.0689
     29 N38        17.3670   67.5280   34.1670 N.am      1 033        -0.2314
     30 O39        19.7720   67.2060   33.5680 O.2       1 033        -0.1505
     31 O40        18.5610   65.3630   34.6140 O.2       1 033        -0.1505
     32 C41        17.2260   69.0040   34.0730 C.3       1 033         0.0921
     33 C42        16.9180   69.5840   35.4460 C.2       1 033         0.0566
     34 O45        15.7950   69.4820   35.9730 O.co2     1 033        -0.5670
     35 O50        17.8140   70.1440   36.0850 O.co2     1 033        -0.5670
     36 H1         25.4394   72.6699   50.6166 H         1 033         0.0535
     37 H2         25.2169   70.3940   49.5369 H         1 033         0.0568
     38 H3         23.4457   74.5121   47.2022 H         1 033         0.0568
     39 H4         24.5397   74.7163   49.4619 H         1 033         0.0563
     40 H5         15.1750   68.9625   33.3855 H         1 033         0.0332
     41 H6         15.7049   69.1523   30.9605 H         1 033         0.0234
     42 H7         16.5628   67.7694   31.7209 H         1 033         0.0234
     43 H8         17.4510   69.2883   31.3591 H         1 033         0.0234
     44 H9         15.7052   71.3310   33.9837 H         1 033         0.0234
     45 H10        15.1602   71.1888   32.2780 H         1 033         0.0234
     46 H11        16.9056   71.3956   32.6490 H         1 033         0.0234
     47 H12        24.2175   69.0054   47.1446 H         1 033         0.0460
     48 H13        21.6070   71.3146   44.1488 H         1 033         0.2267
     49 H14        22.1936   71.6303   41.5831 H         1 033         0.0511
     50 H15        21.4680   70.7423   39.3632 H         1 033         0.0590
     51 H16        20.1040   67.0709   41.2708 H         1 033         0.0590
     52 H17        20.8251   67.9579   43.4970 H         1 033         0.0511
     53 H18        22.1199   68.8976   37.7274 H         1 033         0.0603
     54 H19        21.3677   68.0597   35.4782 H         1 033         0.0631
     55 H20        17.6015   66.7468   37.2422 H         1 033         0.0631
     56 H21        18.3446   67.5807   39.4814 H         1 033         0.0603
     57 H22        16.5698   66.9540   33.9801 H         1 033         0.1697
     58 H23        18.1826   69.4204   33.7245 H         1 033         0.0682
@<TRIPOS>BOND
     1    2    1 ar 
     2    6    1 ar 
     3    3    2 ar 
     4    4    3 ar 
     5   10    3 1  
     6    4    5 ar 
     7   12    4 1  
     8    5    6 ar 
     9    7    8 1  
    10    7    9 1  
    11   32    7 1  
    12   11   10 2  
    13   11   12 1  
    14   13   11 1  
    15   14   13 am 
    16   13   16 2  
    17   15   14 1  
    18   17   15 ar 
    19   21   15 ar 
    20   18   17 ar 
    21   19   18 ar 
    22   19   20 ar 
    23   22   19 1  
    24   20   21 ar 
    25   23   22 ar 
    26   27   22 ar 
    27   24   23 ar 
    28   25   24 ar 
    29   25   26 ar 
    30   28   25 1  
    31   26   27 ar 
    32   29   28 am 
    33   28   30 2  
    34   28   31 2  
    35   29   32 1  
    36   32   33 1  
    37   33   34 ar 
    38   33   35 ar 
    39    1   36 1  
    40    2   37 1  
    41    5   38 1  
    42    6   39 1  
    43    7   40 1  
    44    8   41 1  
    45    8   42 1  
    46    8   43 1  
    47    9   44 1  
    48    9   45 1  
    49    9   46 1  
    50   10   47 1  
    51   14   48 1  
    52   17   49 1  
    53   18   50 1  
    54   20   51 1  
    55   21   52 1  
    56   23   53 1  
    57   24   54 1  
    58   26   55 1  
    59   27   56 1  
    60   29   57 1  
    61   32   58 1  
@<TRIPOS>SUBSTRUCTURE
     1 033         1

