### 
### Created by X-TOOL on Mon Sep 10 21:12:52 2018
### 

@<TRIPOS>MOLECULE
1zuc_ligand
   36    38     1     0     0
SMALL
GAST_HUCK


@<TRIPOS>ATOM
      1 C1         27.9100   -8.7070   13.2440 C.3       1 T98        -0.0688
      2 C2         27.0420   -7.6010   12.6150 C.3       1 T98         0.0657
      3 C3         27.5070   -7.3030   11.2130 C.ar      1 T98         0.0003
      4 C4         27.2660   -8.1820   10.1470 C.ar      1 T98        -0.0397
      5 C5         27.7170   -7.8830    8.8510 C.ar      1 T98         0.0252
      6 C6         28.4620   -6.7160    8.6060 C.ar      1 T98        -0.0324
      7 C7         28.7080   -5.8390    9.6620 C.ar      1 T98        -0.0002
      8 C8         28.2110   -6.1310   10.9450 C.ar      1 T98         0.1161
      9 N1         28.4590   -5.2270   11.9780 N.am      1 T98        -0.1931
     10 C9         28.0470   -5.4560   13.2670 C.2       1 T98         0.2328
     11 S1         28.3710   -4.4440   14.5110 S.2       1 T98        -0.2318
     12 O1         27.3360   -6.5590   13.5750 O.3       1 T98        -0.3164
     13 C10        27.4520   -8.9030    7.8370 C.2       1 T98         0.0785
     14 C11        26.3970   -9.8090    7.7550 C.2       1 T98        -0.0511
     15 C12        26.6740  -10.6270    6.6380 C.2       1 T98        -0.0377
     16 C13        27.8810  -10.2380    6.1080 C.2       1 T98         0.1682
     17 N2         28.3410   -9.1820    6.8320 N.pl3     1 T98        -0.2489
     18 C14        29.6380   -8.5450    6.5510 C.3       1 T98         0.0441
     19 C15        28.5950  -10.7450    4.9860 C.1       1 T98         0.0947
     20 N3         29.2160  -11.1420    4.0840 N.1       1 T98        -0.3581
     21 C16        25.5470   -7.9140   12.6530 C.3       1 T98        -0.0688
     22 H1         27.5582   -8.9126   14.2658 H         1 T98         0.0121
     23 H2         28.9585   -8.3761   13.2769 H         1 T98         0.0121
     24 H3         27.8331   -9.6223   12.6387 H         1 T98         0.0121
     25 H4         26.7247   -9.1040   10.3257 H         1 T98         0.0769
     26 H5         28.8390   -6.5015    7.6125 H         1 T98         0.0825
     27 H6         29.2810   -4.9342    9.4944 H         1 T98         0.0624
     28 H7         28.9541   -4.3829   11.7722 H         1 T98         0.2648
     29 H8         25.5348   -9.8732    8.4171 H         1 T98         0.0380
     30 H9         26.0402  -11.4284    6.2612 H         1 T98         0.0508
     31 H10        29.8008   -7.7176    7.2574 H         1 T98         0.0578
     32 H11        29.6397   -8.1547    5.5226 H         1 T98         0.0578
     33 H12        30.4427   -9.2865    6.6632 H         1 T98         0.0578
     34 H13        24.9875   -7.0877   12.1902 H         1 T98         0.0121
     35 H14        25.2242   -8.0356   13.6975 H         1 T98         0.0121
     36 H15        25.3529   -8.8440   12.0986 H         1 T98         0.0121
@<TRIPOS>BOND
     1    1    2 1  
     2    2    3 1  
     3    2   12 1  
     4    2   21 1  
     5    3    4 ar 
     6    3    8 ar 
     7    4    5 ar 
     8    5    6 ar 
     9    5   13 1  
    10    6    7 ar 
    11    7    8 ar 
    12    8    9 1  
    13    9   10 am 
    14   10   11 2  
    15   10   12 1  
    16   13   14 2  
    17   13   17 1  
    18   14   15 1  
    19   15   16 2  
    20   16   17 1  
    21   16   19 1  
    22   17   18 1  
    23   19   20 3  
    24    1   22 1  
    25    1   23 1  
    26    1   24 1  
    27    4   25 1  
    28    6   26 1  
    29    7   27 1  
    30    9   28 1  
    31   14   29 1  
    32   15   30 1  
    33   18   31 1  
    34   18   32 1  
    35   18   33 1  
    36   21   34 1  
    37   21   35 1  
    38   21   36 1  
@<TRIPOS>SUBSTRUCTURE
     1 T98         1

