### 
### Created by X-TOOL on Mon Sep 10 21:12:53 2018
### 

@<TRIPOS>MOLECULE
1zxc_ligand
   48    49     1     0     0
SMALL
GAST_HUCK


@<TRIPOS>ATOM
      1 C1         -2.0730    9.4130  119.8650 C.3       1 IH6        -0.0025
      2 C2         -2.2670    9.0230  118.4700 C.1       1 IH6        -0.1029
      3 C3         -2.3500    8.6810  117.3190 C.1       1 IH6        -0.0692
      4 C4         -2.4220    8.3100  115.8970 C.3       1 IH6         0.1308
      5 O1         -2.1250    9.4240  115.0330 O.3       1 IH6        -0.3055
      6 C5         -2.9450   10.5160  114.8820 C.ar      1 IH6         0.0925
      7 C6         -4.2890   10.3680  115.2640 C.ar      1 IH6        -0.0313
      8 C7         -5.1850   11.4320  115.1670 C.ar      1 IH6        -0.0440
      9 C8         -4.7310   12.6350  114.6410 C.ar      1 IH6         0.0973
     10 C9         -3.3920   12.8190  114.2720 C.ar      1 IH6        -0.0440
     11 C10        -2.5030   11.7470  114.3770 C.ar      1 IH6        -0.0313
     12 S1         -5.8070   14.0280  114.5540 S.o2      1 IH6         0.0679
     13 O2         -4.9460   15.1790  114.5730 O.2       1 IH6        -0.1514
     14 O3         -6.6660   13.8100  115.7130 O.2       1 IH6        -0.1514
     15 N1         -6.8700   14.1090  113.1720 N.am      1 IH6        -0.2113
     16 C11        -7.9780   13.0970  113.0900 C.3       1 IH6         0.0414
     17 C12        -9.1880   13.6760  112.3470 C.3       1 IH6         0.0117
     18 S2         -8.7490   14.2060  110.6630 S.3       1 IH6        -0.1486
     19 C13        -7.3930   15.3960  111.0520 C.3       1 IH6         0.0479
     20 C14        -6.2940   14.6780  111.8940 C.3       1 IH6         0.1448
     21 C15        -5.5190   13.6030  111.1310 C.2       1 IH6         0.2222
     22 O4         -5.9900   12.5150  110.8490 O.2       1 IH6        -0.3948
     23 N2         -4.2430   13.9760  110.7830 N.am      1 IH6        -0.1626
     24 O5         -3.5240   13.0310  110.0660 O.3       1 IH6        -0.2717
     25 C16        -8.0160   16.6260  111.7470 C.3       1 IH6        -0.0468
     26 C17        -6.7780   15.8940  109.7250 C.3       1 IH6        -0.0468
     27 H1         -3.0210    9.7913  120.2752 H         1 IH6         0.0362
     28 H2         -1.3081   10.2015  119.9224 H         1 IH6         0.0362
     29 H3         -1.7440    8.5398  120.4475 H         1 IH6         0.0362
     30 H4         -3.4372    7.9492  115.6750 H         1 IH6         0.0752
     31 H5         -1.6965    7.5064  115.7024 H         1 IH6         0.0752
     32 H6         -4.6347    9.4119  115.6399 H         1 IH6         0.0542
     33 H7         -6.2125   11.3229  115.4946 H         1 IH6         0.0608
     34 H8         -3.0502   13.7817  113.9094 H         1 IH6         0.0608
     35 H9         -1.4709   11.8667  114.0680 H         1 IH6         0.0542
     36 H10        -8.2822   12.8115  114.1078 H         1 IH6         0.0488
     37 H11        -7.6160   12.2081  112.5526 H         1 IH6         0.0488
     38 H12        -9.5688   14.5433  112.9063 H         1 IH6         0.0392
     39 H13        -9.9714   12.9062  112.2861 H         1 IH6         0.0392
     40 H14        -5.5643   15.4499  112.1796 H         1 IH6         0.0769
     41 H15        -3.8597   14.8662  111.0294 H         1 IH6         0.2217
     42 H16        -2.6597   13.3735  109.8708 H         1 IH6         0.2490
     43 H17        -7.2244   17.3506  111.9888 H         1 IH6         0.0245
     44 H18        -8.5180   16.3089  112.6729 H         1 IH6         0.0245
     45 H19        -8.7493   17.0949  111.0744 H         1 IH6         0.0245
     46 H20        -5.9671   16.6052  109.9409 H         1 IH6         0.0245
     47 H21        -7.5537   16.3933  109.1259 H         1 IH6         0.0245
     48 H22        -6.3753   15.0381  109.1635 H         1 IH6         0.0245
@<TRIPOS>BOND
     1    1    2 1  
     2    2    3 3  
     3    3    4 1  
     4    4    5 1  
     5    5    6 1  
     6    6    7 ar 
     7    6   11 ar 
     8    7    8 ar 
     9    8    9 ar 
    10    9   10 ar 
    11    9   12 1  
    12   10   11 ar 
    13   12   13 2  
    14   12   14 2  
    15   12   15 am 
    16   15   16 1  
    17   15   20 1  
    18   16   17 1  
    19   17   18 1  
    20   18   19 1  
    21   19   20 1  
    22   19   25 1  
    23   19   26 1  
    24   20   21 1  
    25   21   22 2  
    26   21   23 am 
    27   23   24 1  
    28    1   27 1  
    29    1   28 1  
    30    1   29 1  
    31    4   30 1  
    32    4   31 1  
    33    7   32 1  
    34    8   33 1  
    35   10   34 1  
    36   11   35 1  
    37   16   36 1  
    38   16   37 1  
    39   17   38 1  
    40   17   39 1  
    41   20   40 1  
    42   23   41 1  
    43   24   42 1  
    44   25   43 1  
    45   25   44 1  
    46   25   45 1  
    47   26   46 1  
    48   26   47 1  
    49   26   48 1  
@<TRIPOS>SUBSTRUCTURE
     1 IH6         1

