### 
### Created by X-TOOL on Mon Sep 10 21:12:53 2018
### 

@<TRIPOS>MOLECULE
1zxv_ligand
   36    38     1     0     0
SMALL
GAST_HUCK


@<TRIPOS>ATOM
      1 C4         85.8650   45.0470  139.7420 C.ar      1 MFM        -0.0540
      2 C3         86.5260   46.2750  139.8230 C.ar      1 MFM        -0.0500
      3 C2         87.9080   46.3310  139.7490 C.ar      1 MFM         0.0378
      4 CL1        88.7230   47.8370  139.9730 Cl        1 MFM        -0.0725
      5 C1         88.6500   45.1510  139.5880 C.ar      1 MFM        -0.0500
      6 C6         87.9970   43.9330  139.5030 C.ar      1 MFM        -0.0540
      7 C5         86.6000   43.8810  139.5790 C.ar      1 MFM         0.0108
      8 C7         85.9090   42.6860  139.4550 C.2       1 MFM         0.1231
      9 O1         84.5410   42.6420  139.5150 O.3       1 MFM        -0.2558
     10 C8         86.3850   41.5030  139.0680 C.2       1 MFM        -0.0478
     11 C9         85.3510   40.7020  138.8340 C.2       1 MFM        -0.0492
     12 C10        84.2370   41.3720  139.1130 C.2       1 MFM         0.1150
     13 C11        82.9780   40.7740  139.1460 C.2       1 MFM        -0.0003
     14 C12        82.6740   39.5030  138.6730 C.2       1 MFM         0.1190
     15 C14        83.3610   38.8040  137.6810 C.2       1 MFM         0.2511
     16 O2         84.4500   39.1670  137.2260 O.2       1 MFM        -0.3736
     17 S1         81.0960   38.8280  138.7100 S.3       1 MFM         0.0224
     18 C13        81.4140   37.6760  137.4760 C.2       1 MFM         0.1621
     19 S2         80.3560   36.4060  136.8960 S.2       1 MFM        -0.2522
     20 N1         82.6760   37.8540  137.0570 N.am      1 MFM        -0.1850
     21 C15        83.2360   37.1700  135.8890 C.3       1 MFM         0.0746
     22 C16        83.7960   35.8170  136.3300 C.3       1 MFM         0.0269
     23 C17        84.2350   34.9540  135.1390 C.2       1 MFM         0.0373
     24 O4         83.5490   33.9830  134.8080 O.co2     1 MFM        -0.5689
     25 O3         85.2680   35.2040  134.5400 O.co2     1 MFM        -0.5689
     26 H1         84.7837   45.0050  139.8061 H         1 MFM         0.0603
     27 H2         85.9548   47.1882  139.9443 H         1 MFM         0.0616
     28 H3         89.7317   45.1929  139.5303 H         1 MFM         0.0616
     29 H4         88.5674   43.0198  139.3776 H         1 MFM         0.0603
     30 H5         87.4363   41.2392  138.9622 H         1 MFM         0.0417
     31 H6         85.4064   39.6751  138.4759 H         1 MFM         0.0412
     32 H7         82.1632   41.3522  139.5794 H         1 MFM         0.0606
     33 H8         84.0422   37.7798  135.4551 H         1 MFM         0.0618
     34 H9         82.4475   37.0163  135.1376 H         1 MFM         0.0618
     35 H10        83.0183   35.2776  136.8904 H         1 MFM         0.0456
     36 H11        84.6651   35.9890  136.9819 H         1 MFM         0.0456
@<TRIPOS>BOND
     1    1    2 ar 
     2    1    7 ar 
     3    2    3 ar 
     4    3    4 1  
     5    3    5 ar 
     6    5    6 ar 
     7    6    7 ar 
     8    7    8 1  
     9    8    9 1  
    10    8   10 2  
    11    9   12 1  
    12   10   11 1  
    13   11   12 2  
    14   12   13 1  
    15   13   14 2  
    16   14   15 1  
    17   14   17 1  
    18   15   16 2  
    19   15   20 am 
    20   17   18 1  
    21   18   19 2  
    22   18   20 am 
    23   20   21 1  
    24   21   22 1  
    25   22   23 1  
    26   23   24 ar 
    27   23   25 ar 
    28    1   26 1  
    29    2   27 1  
    30    5   28 1  
    31    6   29 1  
    32   10   30 1  
    33   11   31 1  
    34   13   32 1  
    35   21   33 1  
    36   21   34 1  
    37   22   35 1  
    38   22   36 1  
@<TRIPOS>SUBSTRUCTURE
     1 MFM         1

