### 
### Created by X-TOOL on Mon Sep 10 21:12:53 2018
### 

@<TRIPOS>MOLECULE
1zyj_ligand
   39    41     1     0     0
SMALL
GAST_HUCK


@<TRIPOS>ATOM
      1 H1         50.9498   40.7512  -26.2323 H         1 BI5         0.0652
      2 H2         52.6027   42.4927  -27.1166 H         1 BI5         0.0719
      3 H3         53.9686   42.0079  -29.1960 H         1 BI5         0.0652
      4 H4         53.6808   39.7935  -30.4186 H         1 BI5         0.0803
      5 H5         50.2984   37.5361  -28.1955 H         1 BI5         0.0712
      6 H6         49.5001   38.7503  -27.1396 H         1 BI5         0.0712
      7 H7         50.6973   37.8366  -25.2667 H         1 BI5         0.1872
      8 H8         53.0093   34.0194  -26.3730 H         1 BI5         0.0643
      9 H9         54.2910   33.0568  -24.3746 H         1 BI5         0.0566
     10 H10        53.4955   36.7007  -22.0100 H         1 BI5         0.0566
     11 H11        52.2230   37.6780  -24.0074 H         1 BI5         0.0643
     12 H12        53.1797   32.2266  -21.1424 H         1 BI5         0.0553
     13 H13        54.1262   29.8476  -21.1037 H         1 BI5         0.0591
     14 H14        56.4591   29.4082  -21.9511 H         1 BI5         0.0529
     15 H15        57.9140   31.2712  -22.8739 H         1 BI5         0.0591
     16 H16        56.9711   33.6562  -22.9176 H         1 BI5         0.0553
     17 N1         52.1890   39.0500  -29.0190 N.ar      1 BI5        -0.2960
     18 C1         51.4280   39.3130  -27.8570 C.ar      1 BI5         0.0501
     19 C2         51.5410   40.5620  -27.1210 C.ar      1 BI5        -0.0304
     20 C3         52.4830   41.5460  -27.6310 C.ar      1 BI5        -0.0488
     21 C4         53.2660   41.2700  -28.8260 C.ar      1 BI5        -0.0410
     22 C5         53.1060   40.0040  -29.5240 C.ar      1 BI5         0.0028
     23 C6         50.4550   38.2620  -27.3840 C.3       1 BI5         0.0791
     24 N2         50.9350   37.5410  -26.1920 N.am      1 BI5        -0.2740
     25 C7         51.7020   36.4750  -26.4120 C.2       1 BI5         0.1992
     26 C8         52.5370   35.8980  -25.2800 C.ar      1 BI5         0.0392
     27 C9         53.1130   34.5750  -25.4480 C.ar      1 BI5        -0.0496
     28 C10        53.8350   34.0380  -24.3090 C.ar      1 BI5        -0.0223
     29 C11        53.9510   34.8090  -23.0780 C.ar      1 BI5         0.1214
     30 C12        53.3840   36.1400  -22.9310 C.ar      1 BI5        -0.0223
     31 C13        52.6630   36.6890  -24.0650 C.ar      1 BI5        -0.0496
     32 O1         54.5380   34.3110  -21.9800 O.3       1 BI5        -0.2545
     33 C14        55.0350   33.0720  -22.0180 C.ar      1 BI5         0.1176
     34 C15        54.1810   32.0170  -21.5010 C.ar      1 BI5        -0.0281
     35 C16        54.7240   30.6680  -21.4840 C.ar      1 BI5        -0.0695
     36 C17        56.0710   30.4200  -21.9780 C.ar      1 BI5        -0.0721
     37 C18        56.9160   31.4820  -22.5070 C.ar      1 BI5        -0.0695
     38 C19        56.3790   32.8360  -22.5280 C.ar      1 BI5        -0.0281
     39 O2         51.7410   35.9630  -27.5340 O.2       1 BI5        -0.3894
@<TRIPOS>BOND
     1   19    1 1  
     2   20    2 1  
     3   21    3 1  
     4   22    4 1  
     5   23    5 1  
     6   23    6 1  
     7   24    7 1  
     8   27    8 1  
     9   28    9 1  
    10   30   10 1  
    11   31   11 1  
    12   34   12 1  
    13   35   13 1  
    14   36   14 1  
    15   37   15 1  
    16   38   16 1  
    17   18   17 ar 
    18   17   22 ar 
    19   18   19 ar 
    20   23   18 1  
    21   19   20 ar 
    22   20   21 ar 
    23   22   21 ar 
    24   24   23 1  
    25   25   24 am 
    26   26   25 1  
    27   25   39 2  
    28   27   26 ar 
    29   31   26 ar 
    30   28   27 ar 
    31   29   28 ar 
    32   29   30 ar 
    33   32   29 1  
    34   30   31 ar 
    35   33   32 1  
    36   34   33 ar 
    37   33   38 ar 
    38   35   34 ar 
    39   36   35 ar 
    40   36   37 ar 
    41   37   38 ar 
@<TRIPOS>SUBSTRUCTURE
     1 BI5         1

