### 
### Created by X-TOOL on Mon Sep 10 21:12:53 2018
### 

@<TRIPOS>MOLECULE
1zyr_ligand
   87    91     1     0     0
SMALL
GAST_HUCK


@<TRIPOS>ATOM
      1 C1        -27.5940  -44.5340  -22.3290 C.2       1 STD         0.1024
      2 C2        -26.9140  -43.2920  -22.5510 C.2       1 STD         0.1822
      3 N1        -26.1770  -43.3940  -23.7590 N.am      1 STD        -0.2332
      4 C3        -27.1590  -45.3710  -23.4350 C.2       1 STD         0.1320
      5 C4        -25.8500  -42.2340  -24.5140 C.3       1 STD         0.1466
      6 O1        -27.7450  -46.4310  -23.7950 O.2       1 STD        -0.4064
      7 O2        -26.9950  -42.2470  -21.9000 O.2       1 STD        -0.4118
      8 C5        -28.5160  -44.8350  -21.3610 C.2       1 STD         0.1112
      9 C6        -28.9440  -43.9240  -20.3420 C.2       1 STD        -0.0169
     10 C7        -29.8400  -44.2350  -19.4240 C.2       1 STD        -0.0498
     11 C8        -30.2250  -43.3700  -18.3640 C.2       1 STD        -0.0360
     12 C9        -31.0620  -43.8740  -17.4890 C.2       1 STD        -0.0537
     13 C10       -31.4910  -43.2090  -16.2530 C.3       1 STD         0.0187
     14 C11       -29.6210  -41.9630  -18.2810 C.3       1 STD        -0.0355
     15 O3        -29.0890  -46.0960  -21.3310 O.3       1 STD        -0.3179
     16 O4        -27.0850  -41.4950  -24.6820 O.3       1 STD        -0.3489
     17 C12       -24.7090  -41.4380  -23.7910 C.3       1 STD        -0.0025
     18 C13       -30.3440  -43.2170  -15.1720 C.3       1 STD         0.0851
     19 C14       -32.7910  -43.9040  -15.7650 C.3       1 STD        -0.0472
     20 C15       -24.4970  -40.1300  -24.5560 C.3       1 STD        -0.0201
     21 C16       -29.9930  -44.6270  -14.4790 C.3       1 STD         0.0388
     22 O5        -30.8210  -42.3230  -14.1470 O.3       1 STD        -0.3500
     23 C17       -29.0660  -44.3820  -13.2310 C.3       1 STD         0.1414
     24 C18       -29.2870  -45.6450  -15.4220 C.3       1 STD        -0.0527
     25 C19       -30.0030  -42.1710  -12.9400 C.3       1 STD         0.1638
     26 C20       -25.9120  -44.8100  -24.1170 C.3       1 STD         0.1297
     27 C21       -24.5390  -45.0300  -23.4010 C.3       1 STD         0.0830
     28 C22       -24.3530  -46.2000  -22.4740 C.2       1 STD         0.1829
     29 C23       -23.3360  -44.9510  -24.3920 C.3       1 STD        -0.0411
     30 N2        -24.1720  -45.8040  -21.1470 N.am      1 STD        -0.2896
     31 O6        -24.3580  -47.3960  -22.8080 O.2       1 STD        -0.3966
     32 C24       -23.9430  -46.7620  -20.0600 C.3       1 STD         0.0196
     33 C25       -26.9270  -40.2400  -25.3890 C.3       1 STD         0.0844
     34 C26       -25.8520  -39.3410  -24.6100 C.3       1 STD         0.0813
     35 O7        -26.2890  -39.0940  -23.2390 O.3       1 STD        -0.3892
     36 C27       -28.3180  -39.5450  -25.5390 C.3       1 STD        -0.0362
     37 O8        -29.7840  -43.4810  -12.3260 O.3       1 STD        -0.3204
     38 C28       -28.6110  -41.4560  -13.2000 C.3       1 STD         0.1006
     39 C29       -30.8310  -41.3040  -11.9790 C.3       1 STD        -0.0204
     40 C30       -27.6970  -43.7750  -13.5720 C.2       1 STD         0.0153
     41 C31       -28.7680  -40.2050  -14.0150 C.3       1 STD         0.0252
     42 C32       -27.4900  -42.4450  -13.5430 C.2       1 STD        -0.0507
     43 O9        -28.1620  -40.2370  -12.7290 O.3       1 STD        -0.4347
     44 H1        -25.4805  -42.5313  -25.5065 H         1 STD         0.0868
     45 H2        -28.5089  -42.9259  -20.3237 H         1 STD         0.0545
     46 H3        -30.3131  -45.2141  -19.4824 H         1 STD         0.0757
     47 H4        -31.4702  -44.8623  -17.6956 H         1 STD         0.0773
     48 H5        -31.7259  -42.1590  -16.4817 H         1 STD         0.0540
     49 H6        -28.9543  -41.7989  -19.1404 H         1 STD         0.0350
     50 H7        -29.0470  -41.8648  -17.3478 H         1 STD         0.0350
     51 H8        -30.4283  -41.2160  -18.2953 H         1 STD         0.0350
     52 H9        -28.7398  -46.6183  -22.0436 H         1 STD         0.2593
     53 H10       -23.7808  -42.0282  -23.7938 H         1 STD         0.0312
     54 H11       -25.0028  -41.2216  -22.7533 H         1 STD         0.0312
     55 H12       -29.4239  -42.8256  -15.6305 H         1 STD         0.0639
     56 H13       -33.5488  -43.8649  -16.5614 H         1 STD         0.0264
     57 H14       -33.1707  -43.3860  -14.8719 H         1 STD         0.0264
     58 H15       -32.5746  -44.9534  -15.5161 H         1 STD         0.0264
     59 H16       -24.1593  -40.3522  -25.5790 H         1 STD         0.0292
     60 H17       -23.7372  -39.5222  -24.0429 H         1 STD         0.0292
     61 H18       -30.9371  -45.0778  -14.1392 H         1 STD         0.0408
     62 H19       -28.8959  -45.3459  -12.7292 H         1 STD         0.1038
     63 H20       -29.9205  -45.8298  -16.3021 H         1 STD         0.0238
     64 H21       -29.1223  -46.5901  -14.8839 H         1 STD         0.0238
     65 H22       -28.3195  -45.2343  -15.7464 H         1 STD         0.0238
     66 H23       -25.8632  -45.0506  -25.1893 H         1 STD         0.0796
     67 H24       -24.4436  -44.1509  -22.7468 H         1 STD         0.0582
     68 H25       -22.3969  -45.1116  -23.8422 H         1 STD         0.0259
     69 H26       -23.3173  -43.9594  -24.8678 H         1 STD         0.0259
     70 H27       -23.4457  -45.7264  -25.1645 H         1 STD         0.0259
     71 H28       -24.1996  -44.8284  -20.9292 H         1 STD         0.1847
     72 H29       -23.8298  -46.2187  -19.1103 H         1 STD         0.0484
     73 H30       -23.0279  -47.3370  -20.2647 H         1 STD         0.0484
     74 H31       -24.7995  -47.4486  -19.9898 H         1 STD         0.0484
     75 H32       -26.5378  -40.4447  -26.3973 H         1 STD         0.0620
     76 H33       -25.7154  -38.3846  -25.1359 H         1 STD         0.0619
     77 H34       -26.3862  -39.9226  -22.7847 H         1 STD         0.2099
     78 H35       -28.1960  -38.5927  -26.0758 H         1 STD         0.0255
     79 H36       -28.7411  -39.3523  -24.5421 H         1 STD         0.0255
     80 H37       -28.9963  -40.2005  -26.1048 H         1 STD         0.0255
     81 H38       -31.0016  -40.3159  -12.4313 H         1 STD         0.0269
     82 H39       -30.2859  -41.1842  -11.0311 H         1 STD         0.0269
     83 H40       -31.7983  -41.7911  -11.7867 H         1 STD         0.0269
     84 H41       -26.8749  -44.4356  -13.8435 H         1 STD         0.1558
     85 H42       -29.7591  -39.7491  -14.1556 H         1 STD         0.0420
     86 H43       -28.1592  -40.0443  -14.9169 H         1 STD         0.0420
     87 H44       -26.4969  -42.0599  -13.7699 H         1 STD         0.0490
@<TRIPOS>BOND
     1    1    2 1  
     2    1    4 1  
     3    1    8 2  
     4    2    3 am 
     5    2    7 2  
     6    3    5 1  
     7    3   26 1  
     8    4    6 2  
     9    4   26 1  
    10    5   16 1  
    11    5   17 1  
    12    8    9 1  
    13    8   15 1  
    14    9   10 2  
    15   10   11 1  
    16   11   12 2  
    17   11   14 1  
    18   12   13 1  
    19   13   18 1  
    20   13   19 1  
    21   16   33 1  
    22   17   20 1  
    23   18   21 1  
    24   18   22 1  
    25   20   34 1  
    26   21   23 1  
    27   21   24 1  
    28   22   25 1  
    29   23   37 1  
    30   23   40 1  
    31   25   37 1  
    32   25   38 1  
    33   25   39 1  
    34   26   27 1  
    35   27   28 1  
    36   27   29 1  
    37   28   30 am 
    38   28   31 2  
    39   30   32 1  
    40   33   34 1  
    41   33   36 1  
    42   34   35 1  
    43   38   41 1  
    44   38   42 1  
    45   38   43 1  
    46   40   42 2  
    47   41   43 1  
    48    5   44 1  
    49    9   45 1  
    50   10   46 1  
    51   12   47 1  
    52   13   48 1  
    53   14   49 1  
    54   14   50 1  
    55   14   51 1  
    56   15   52 1  
    57   17   53 1  
    58   17   54 1  
    59   18   55 1  
    60   19   56 1  
    61   19   57 1  
    62   19   58 1  
    63   20   59 1  
    64   20   60 1  
    65   21   61 1  
    66   23   62 1  
    67   24   63 1  
    68   24   64 1  
    69   24   65 1  
    70   26   66 1  
    71   27   67 1  
    72   29   68 1  
    73   29   69 1  
    74   29   70 1  
    75   30   71 1  
    76   32   72 1  
    77   32   73 1  
    78   32   74 1  
    79   33   75 1  
    80   34   76 1  
    81   35   77 1  
    82   36   78 1  
    83   36   79 1  
    84   36   80 1  
    85   39   81 1  
    86   39   82 1  
    87   39   83 1  
    88   40   84 1  
    89   41   85 1  
    90   41   86 1  
    91   42   87 1  
@<TRIPOS>SUBSTRUCTURE
     1 STD         1

