### 
### Created by X-TOOL on Mon Sep 10 21:12:52 2018
### 

@<TRIPOS>MOLECULE
1zz1_ligand
   39    39     1     0     0
SMALL
GAST_HUCK


@<TRIPOS>ATOM
      1 O1         -4.3600  -14.5190   43.9310 O.3       1 SHH        -0.2717
      2 O2         -2.3410  -14.5180   42.2580 O.2       1 SHH        -0.3970
      3 N1         -4.4660  -14.5820   42.5380 N.am      1 SHH        -0.1642
      4 C1         -3.4500  -14.1660   41.8800 C.2       1 SHH         0.1988
      5 C2         -3.7520  -13.3200   40.6460 C.3       1 SHH         0.0389
      6 C3         -4.0330  -11.8480   40.9210 C.3       1 SHH        -0.0361
      7 C4         -4.1800  -10.9850   39.6570 C.3       1 SHH        -0.0509
      8 C5         -5.1840  -11.4680   38.6000 C.3       1 SHH        -0.0508
      9 C6         -5.6240  -10.3570   37.6390 C.3       1 SHH        -0.0356
     10 C7         -6.6640  -10.8180   36.6160 C.3       1 SHH         0.0432
     11 C8         -7.2510   -9.5920   35.9400 C.2       1 SHH         0.2036
     12 O3         -6.5290   -8.8030   35.3400 O.2       1 SHH        -0.3849
     13 N2         -8.5720   -9.4340   36.0480 N.am      1 SHH        -0.2339
     14 C9         -9.2500   -8.3670   35.5510 C.ar      1 SHH         0.0662
     15 C10       -10.4390   -8.5970   34.8640 C.ar      1 SHH        -0.0413
     16 C11       -11.1670   -7.5280   34.3460 C.ar      1 SHH        -0.0755
     17 C12       -10.7050   -6.2200   34.5160 C.ar      1 SHH        -0.0772
     18 C13        -9.5140   -5.9780   35.2050 C.ar      1 SHH        -0.0755
     19 C14        -8.7880   -7.0560   35.7220 C.ar      1 SHH        -0.0413
     20 H1         -3.6248  -15.0489   44.2158 H         1 SHH         0.2490
     21 H2         -5.2857  -14.9308   42.0836 H         1 SHH         0.2216
     22 H3         -4.6347  -13.7476   40.1481 H         1 SHH         0.0502
     23 H4         -2.8852  -13.3806   39.9715 H         1 SHH         0.0502
     24 H5         -3.2025  -11.4446   41.5189 H         1 SHH         0.0289
     25 H6         -4.9675  -11.7774   41.4969 H         1 SHH         0.0289
     26 H7         -3.1923  -10.9287   39.1761 H         1 SHH         0.0267
     27 H8         -4.4907   -9.9790   39.9755 H         1 SHH         0.0267
     28 H9         -6.0741  -11.8588   39.1148 H         1 SHH         0.0267
     29 H10        -4.7162  -12.2730   38.0143 H         1 SHH         0.0267
     30 H11        -4.7386   -9.9934   37.0970 H         1 SHH         0.0290
     31 H12        -6.0556   -9.5354   38.2294 H         1 SHH         0.0290
     32 H13        -7.4618  -11.3788   37.1248 H         1 SHH         0.0508
     33 H14        -6.1848  -11.4625   35.8643 H         1 SHH         0.0508
     34 H15        -9.0934  -10.1430   36.5229 H         1 SHH         0.2257
     35 H16       -10.7993   -9.6108   34.7318 H         1 SHH         0.0502
     36 H17       -12.0919   -7.7108   33.8110 H         1 SHH         0.0577
     37 H18       -11.2730   -5.3900   34.1117 H         1 SHH         0.0487
     38 H19        -9.1556   -4.9636   35.3378 H         1 SHH         0.0577
     39 H20        -7.8630   -6.8758   36.2578 H         1 SHH         0.0502
@<TRIPOS>BOND
     1    3    1 1  
     2    4    2 2  
     3    3    4 am 
     4    4    5 1  
     5    5    6 1  
     6    6    7 1  
     7    7    8 1  
     8    8    9 1  
     9    9   10 1  
    10   10   11 1  
    11   11   12 2  
    12   11   13 am 
    13   13   14 1  
    14   14   15 ar 
    15   14   19 ar 
    16   15   16 ar 
    17   16   17 ar 
    18   17   18 ar 
    19   18   19 ar 
    20    1   20 1  
    21    3   21 1  
    22    5   22 1  
    23    5   23 1  
    24    6   24 1  
    25    6   25 1  
    26    7   26 1  
    27    7   27 1  
    28    8   28 1  
    29    8   29 1  
    30    9   30 1  
    31    9   31 1  
    32   10   32 1  
    33   10   33 1  
    34   13   34 1  
    35   15   35 1  
    36   16   36 1  
    37   17   37 1  
    38   18   38 1  
    39   19   39 1  
@<TRIPOS>SUBSTRUCTURE
     1 SHH         1

