### 
### Created by X-TOOL on Mon Sep 10 21:12:52 2018
### 

@<TRIPOS>MOLECULE
1zz3_ligand
   24    24     1     0     0
SMALL
GAST_HUCK


@<TRIPOS>ATOM
      1 CAF        -5.5340  -11.8380   38.6520 C.3       1 3YP        -0.0501
      2 CAC        -5.5130  -10.4750   37.9630 C.3       1 3YP        -0.0528
      3 CAD        -4.0780  -10.0430   38.2760 C.3       1 3YP        -0.0528
      4 CAG        -3.9620  -10.3360   39.7800 C.3       1 3YP        -0.0501
      5 CAK        -4.8550  -11.5670   40.0210 C.3       1 3YP        -0.0389
      6 CAH        -3.9390  -12.7120   40.4860 C.3       1 3YP        -0.0324
      7 CAE        -4.5620  -14.0770   40.7180 C.3       1 3YP         0.0517
      8 CAJ        -4.0290  -14.5440   42.0260 C.2       1 3YP         0.2874
      9 OAA        -2.8600  -14.8200   42.2380 O.2       1 3YP        -0.3282
     10 NAI        -4.7300  -14.3480   42.9020 N.2       1 3YP         0.0349
     11 OAB        -4.4070  -14.6120   44.1530 O.2       1 3YP        -0.1733
     12 H1         -4.9655  -12.5798   38.0720 H         1 3YP         0.0268
     13 H2         -6.5662  -12.1926   38.7892 H         1 3YP         0.0268
     14 H3         -6.2513   -9.7857   38.3985 H         1 3YP         0.0265
     15 H4         -5.6865  -10.5619   36.8803 H         1 3YP         0.0265
     16 H5         -3.9306   -8.9731   38.0671 H         1 3YP         0.0265
     17 H6         -3.3506  -10.6329   37.6990 H         1 3YP         0.0265
     18 H7         -4.3199   -9.4786   40.3689 H         1 3YP         0.0268
     19 H8         -2.9190  -10.5571   40.0507 H         1 3YP         0.0268
     20 H9         -5.6167  -11.3669   40.7890 H         1 3YP         0.0302
     21 H10        -3.4789  -12.3976   41.4344 H         1 3YP         0.0293
     22 H11        -3.1571  -12.8355   39.7222 H         1 3YP         0.0293
     23 H12        -4.2733  -14.7720   39.9158 H         1 3YP         0.0512
     24 H13        -5.6584  -13.9969   40.7569 H         1 3YP         0.0512
@<TRIPOS>BOND
     1    1    2 1  
     2    1    5 1  
     3    2    3 1  
     4    3    4 1  
     5    4    5 1  
     6    5    6 1  
     7    6    7 1  
     8    7    8 1  
     9    8    9 2  
    10    8   10 1  
    11   10   11 2  
    12    1   12 1  
    13    1   13 1  
    14    2   14 1  
    15    2   15 1  
    16    3   16 1  
    17    3   17 1  
    18    4   18 1  
    19    4   19 1  
    20    5   20 1  
    21    6   21 1  
    22    6   22 1  
    23    7   23 1  
    24    7   24 1  
@<TRIPOS>SUBSTRUCTURE
     1 3YP         1

