### 
### Created by X-TOOL on Mon Sep 10 21:12:53 2018
### 

@<TRIPOS>MOLECULE
1zzl_ligand
   39    42     1     0     0
SMALL
GAST_HUCK


@<TRIPOS>ATOM
      1 C7          0.6320   11.5970   30.6790 C.2       1 TZY         0.1030
      2 C9          2.3290   15.3620   30.4860 C.2       1 TZY         0.1631
      3 C13         2.2950    9.6040   31.6560 C.2       1 TZY        -0.0142
      4 C21        -2.3850   10.5790   30.3240 C.3       1 TZY         0.0339
      5 C8          2.8010   10.8480   31.4050 C.2       1 TZY        -0.0473
      6 C18         7.4640   11.6190   30.4890 C.ar      1 TZY         0.1280
      7 C16         0.9040    9.3440   31.4150 C.2       1 TZY         0.1488
      8 F22         8.6350   10.9600   30.5580 F         1 TZY        -0.1867
      9 C15         7.1730   12.5060   31.5190 C.ar      1 TZY        -0.0325
     10 C11         5.9570   13.1940   31.5280 C.ar      1 TZY        -0.0622
     11 C14         6.5530   11.3720   29.4630 C.ar      1 TZY        -0.0325
     12 C10         5.3300   12.0640   29.4510 C.ar      1 TZY        -0.0622
     13 C5          5.0300   12.9740   30.4970 C.ar      1 TZY        -0.0283
     14 C2          3.7300   13.7380   30.5320 C.2       1 TZY         0.0470
     15 N6          3.5880   15.0770   30.4200 N.2       1 TZY        -0.2991
     16 O4          1.5800   14.2650   30.6580 O.3       1 TZY        -0.2268
     17 C1          2.4440   13.2230   30.6590 C.2       1 TZY         0.1524
     18 C3          1.9750   11.8570   30.8730 C.2       1 TZY         0.0589
     19 N12         0.0920   10.3600   30.9420 N.pl3     1 TZY        -0.1666
     20 C17        -1.1580    9.8210   30.8110 C.2       1 TZY         0.1563
     21 C24        -3.0740   11.2070   31.5490 C.3       1 TZY        -0.0473
     22 C23        -3.3800    9.6640   29.6030 C.3       1 TZY        -0.0473
     23 N19         0.1400    8.2600   31.5550 N.2       1 TZY        -0.2927
     24 N20        -1.0900    8.5580   31.2270 N.2       1 TZY        -0.2767
     25 H1         -0.0147   12.3911   30.3088 H         1 TZY         0.1265
     26 H2          1.9263   16.3710   30.4109 H         1 TZY         0.1404
     27 H3          2.9424    8.8152   32.0362 H         1 TZY         0.0586
     28 H4         -2.0659   11.3721   29.6318 H         1 TZY         0.0521
     29 H5          3.8478   11.0603   31.6173 H         1 TZY         0.0659
     30 H6          7.8904   12.6641   32.3162 H         1 TZY         0.0594
     31 H7          5.7310   13.8927   32.3254 H         1 TZY         0.0570
     32 H8          6.7852   10.6549   28.6840 H         1 TZY         0.0594
     33 H9          4.6203   11.9034   28.6475 H         1 TZY         0.0570
     34 H10        -3.9662   11.7620   31.2234 H         1 TZY         0.0258
     35 H11        -2.3766   11.8949   32.0494 H         1 TZY         0.0258
     36 H12        -3.3716   10.4129   32.2495 H         1 TZY         0.0258
     37 H13        -2.8934    9.2119   28.7262 H         1 TZY         0.0258
     38 H14        -4.2498   10.2530   29.2766 H         1 TZY         0.0258
     39 H15        -3.7112    8.8700   30.2885 H         1 TZY         0.0258
@<TRIPOS>BOND
     1    1   18 2  
     2   19    1 1  
     3    2   15 2  
     4   16    2 1  
     5    3    5 2  
     6    7    3 1  
     7   20    4 1  
     8    4   21 1  
     9    4   22 1  
    10   18    5 1  
    11    6    8 1  
    12    9    6 ar 
    13   11    6 ar 
    14   19    7 1  
    15    7   23 2  
    16   10    9 ar 
    17   13   10 ar 
    18   12   11 ar 
    19   13   12 ar 
    20   14   13 1  
    21   14   15 1  
    22   17   14 2  
    23   17   16 1  
    24   18   17 1  
    25   19   20 1  
    26   20   24 2  
    27   23   24 1  
    28    1   25 1  
    29    2   26 1  
    30    3   27 1  
    31    4   28 1  
    32    5   29 1  
    33    9   30 1  
    34   10   31 1  
    35   11   32 1  
    36   12   33 1  
    37   21   34 1  
    38   21   35 1  
    39   21   36 1  
    40   22   37 1  
    41   22   38 1  
    42   22   39 1  
@<TRIPOS>SUBSTRUCTURE
     1 TZY         1

