### 
### Created by X-TOOL on Mon Sep 10 21:12:46 2018
### 

@<TRIPOS>MOLECULE
1zzz_ligand
   57    58     1     0     0
SMALL
GAST_HUCK


@<TRIPOS>ATOM
      1 N          25.1570    4.6820   29.2140 N.4       1 0IV         0.2379
      2 CA         25.5970    3.3910   29.6250 C.3       1 0IV         0.0653
      3 CB         26.1840    3.4820   31.0050 C.3       1 0IV         0.0097
      4 CG         26.4320    2.1540   31.6720 C.3       1 0IV        -0.0251
      5 C          24.5370    2.2410   29.4950 C.2       1 0IV         0.2290
      6 CD         25.2710    1.1810   31.6400 C.3       1 0IV         0.0369
      7 O          23.7760    2.3820   28.5310 O.2       1 0IV        -0.3905
      8 N          24.6040    1.1740   30.3100 N.am      1 0IV        -0.2498
      9 CA         23.7020    0.0530   29.9470 C.3       1 0IV         0.1228
     10 C          22.4180    0.8670   30.2860 C.2       1 0IV         0.1990
     11 O          22.1470    1.3320   31.4330 O.2       1 0IV        -0.3948
     12 C2         19.3380    2.1580   28.1910 C.3       1 0IV        -0.0055
     13 C3         20.1240    2.0850   26.8650 C.3       1 0IV         0.0677
     14 N          21.2880    0.3550   29.5550 N.am      1 0IV        -0.2800
     15 C15        19.9550    0.5250   29.9580 C.3       1 0IV         0.0655
     16 C16        19.4520   -0.5070   31.0730 C.3       1 0IV         0.0671
     17 O5         18.0560   -0.6290   31.1720 O.3       1 0IV        -0.3927
     18 C17        19.1950    0.8040   28.7650 C.3       1 0IV        -0.0217
     19 CZ         19.9900    3.7540   25.0540 C.cat     1 0IV         0.2903
     20 NE         20.2770    3.4130   26.3750 N.pl3     1 0IV        -0.2595
     21 CD         20.9790    4.3780   27.3200 C.3       1 0IV         0.0649
     22 CG         20.1910    4.5320   28.6190 C.3       1 0IV        -0.0193
     23 C1         20.0500    3.1780   29.1560 C.3       1 0IV        -0.0438
     24 NH1        19.5410    2.8750   24.2120 N.pl3     1 0IV        -0.2848
     25 NH2        20.1300    4.9700   24.7200 N.pl3     1 0IV        -0.2848
     26 H1         25.9052    5.3464   29.3355 H         1 0IV         0.2015
     27 H2         24.3659    4.9610   29.7728 H         1 0IV         0.2015
     28 H3         24.8886    4.6521   28.2428 H         1 0IV         0.2015
     29 H4         26.4180    3.1151   28.9469 H         1 0IV         0.1098
     30 H5         25.4903    4.0578   31.6353 H         1 0IV         0.0346
     31 H6         27.1438    4.0147   30.9348 H         1 0IV         0.0346
     32 H7         26.6845    2.3457   32.7253 H         1 0IV         0.0288
     33 H8         27.2874    1.6775   31.1707 H         1 0IV         0.0288
     34 H9         24.5380    1.4734   32.4062 H         1 0IV         0.0524
     35 H10        25.6455    0.1699   31.8577 H         1 0IV         0.0524
     36 H11        23.8348   -0.8371   30.5795 H         1 0IV         0.0765
     37 H12        23.7690   -0.2364   28.8879 H         1 0IV         0.0765
     38 H13        18.3285    2.5408   27.9803 H         1 0IV         0.0335
     39 H14        19.5691    1.4783   26.1342 H         1 0IV         0.0693
     40 H15        21.1123    1.6349   27.0403 H         1 0IV         0.0693
     41 H16        21.4637   -0.1513   28.7107 H         1 0IV         0.1855
     42 H17        19.9395    1.4798   30.5039 H         1 0IV         0.0579
     43 H18        19.8368   -0.1729   32.0478 H         1 0IV         0.0580
     44 H19        19.8666   -1.4977   30.8351 H         1 0IV         0.0580
     45 H20        17.8415   -1.2565   31.8522 H         1 0IV         0.2095
     46 H21        19.5041    0.0810   27.9958 H         1 0IV         0.0292
     47 H22        18.1319    0.6533   29.0038 H         1 0IV         0.0292
     48 H23        21.0672    5.3603   26.8328 H         1 0IV         0.0690
     49 H24        21.9827    3.9915   27.5505 H         1 0IV         0.0690
     50 H25        19.2023    4.9706   28.4188 H         1 0IV         0.0299
     51 H26        20.7390    5.1709   29.3272 H         1 0IV         0.0299
     52 H27        21.0553    2.7923   29.3809 H         1 0IV         0.0270
     53 H28        19.4637    3.2372   30.0848 H         1 0IV         0.0270
     54 H29        19.3359    3.1500   23.2408 H         1 0IV         0.2615
     55 H30        19.3897    1.9022   24.5147 H         1 0IV         0.2615
     56 H31        20.4880    5.6535   25.4023 H         1 0IV         0.2615
     57 H32        19.8857    5.2736   23.7666 H         1 0IV         0.2615
@<TRIPOS>BOND
     1    2    1 1  
     2    2    3 1  
     3    5    2 1  
     4    4    3 1  
     5    6    4 1  
     6    5    7 2  
     7    8    5 am 
     8    8    6 1  
     9    9    8 1  
    10   10    9 1  
    11   10   11 2  
    12   14   10 am 
    13   12   13 1  
    14   18   12 1  
    15   12   23 1  
    16   13   20 1  
    17   15   14 1  
    18   15   16 1  
    19   15   18 1  
    20   16   17 1  
    21   20   19 ar 
    22   19   24 ar 
    23   19   25 ar 
    24   20   21 1  
    25   21   22 1  
    26   22   23 1  
    27    1   26 1  
    28    1   27 1  
    29    1   28 1  
    30    2   29 1  
    31    3   30 1  
    32    3   31 1  
    33    4   32 1  
    34    4   33 1  
    35    6   34 1  
    36    6   35 1  
    37    9   36 1  
    38    9   37 1  
    39   12   38 1  
    40   13   39 1  
    41   13   40 1  
    42   14   41 1  
    43   15   42 1  
    44   16   43 1  
    45   16   44 1  
    46   17   45 1  
    47   18   46 1  
    48   18   47 1  
    49   21   48 1  
    50   21   49 1  
    51   22   50 1  
    52   22   51 1  
    53   23   52 1  
    54   23   53 1  
    55   24   54 1  
    56   24   55 1  
    57   25   56 1  
    58   25   57 1  
@<TRIPOS>SUBSTRUCTURE
     1 0IV         1

