### 
### Created by X-TOOL on Mon Sep 10 21:12:46 2018
### 

@<TRIPOS>MOLECULE
220l_ligand
   12    12     1     0     0
SMALL
GAST_HUCK


@<TRIPOS>ATOM
      1 C1         30.3320    8.8900    1.1050 C.ar      1 BNZ        -0.0618
      2 C2         30.9980   10.0850    1.3100 C.ar      1 BNZ        -0.0618
      3 C3         30.2880   11.2650    1.4270 C.ar      1 BNZ        -0.0618
      4 C4         28.9160   11.2430    1.3150 C.ar      1 BNZ        -0.0618
      5 C5         28.2450   10.0330    1.1040 C.ar      1 BNZ        -0.0618
      6 C6         28.9480    8.8550    1.0060 C.ar      1 BNZ        -0.0618
      7 H1         30.8981    7.9694    1.0206 H         1 BNZ         0.0618
      8 H2         32.0797   10.0960    1.3791 H         1 BNZ         0.0618
      9 H3         30.8070   12.1998    1.6054 H         1 BNZ         0.0618
     10 H4         28.3533   12.1664    1.3905 H         1 BNZ         0.0618
     11 H5         27.1645   10.0243    1.0173 H         1 BNZ         0.0618
     12 H6         28.4299    7.9150    0.8540 H         1 BNZ         0.0618
@<TRIPOS>BOND
     1    1    2 ar 
     2    1    6 ar 
     3    2    3 ar 
     4    3    4 ar 
     5    4    5 ar 
     6    5    6 ar 
     7    1    7 1  
     8    2    8 1  
     9    3    9 1  
    10    4   10 1  
    11    5   11 1  
    12    6   12 1  
@<TRIPOS>SUBSTRUCTURE
     1 BNZ         1

