### 
### Created by X-TOOL on Mon Sep 10 21:12:46 2018
### 

@<TRIPOS>MOLECULE
223l_ligand
   12    12     1     0     0
SMALL
GAST_HUCK


@<TRIPOS>ATOM
      1 C1         29.4090    7.9130   -1.7090 C.ar      1 BNZ        -0.0618
      2 C2         30.1620    7.3800   -2.7460 C.ar      1 BNZ        -0.0618
      3 C3         31.3980    7.9340   -3.0780 C.ar      1 BNZ        -0.0618
      4 C4         31.8660    9.0540   -2.4000 C.ar      1 BNZ        -0.0618
      5 C5         31.1000    9.6020   -1.3760 C.ar      1 BNZ        -0.0618
      6 C6         29.8700    9.0320   -1.0270 C.ar      1 BNZ        -0.0618
      7 H1         28.4649    7.4579   -1.4324 H         1 BNZ         0.0618
      8 H2         29.7870    6.5278   -3.3013 H         1 BNZ         0.0618
      9 H3         31.9952    7.4904   -3.8664 H         1 BNZ         0.0618
     10 H4         32.8191    9.4962   -2.6668 H         1 BNZ         0.0618
     11 H5         31.4581   10.4764   -0.8447 H         1 BNZ         0.0618
     12 H6         29.2789    9.4626   -0.2268 H         1 BNZ         0.0618
@<TRIPOS>BOND
     1    1    2 ar 
     2    1    6 ar 
     3    2    3 ar 
     4    3    4 ar 
     5    4    5 ar 
     6    5    6 ar 
     7    1    7 1  
     8    2    8 1  
     9    3    9 1  
    10    4   10 1  
    11    5   11 1  
    12    6   12 1  
@<TRIPOS>SUBSTRUCTURE
     1 BNZ         1

