### 
### Created by X-TOOL on Mon Sep 10 21:12:54 2018
### 

@<TRIPOS>MOLECULE
2a0c_ligand
   53    55     1     0     0
SMALL
GAST_HUCK


@<TRIPOS>ATOM
      1 O27         3.4740    9.8470   27.9890 O.3       1 CK9        -0.3368
      2 C24         4.1320    9.7280   29.1940 C.ar      1 CK9         0.0912
      3 C23         4.2590   10.8230   30.0990 C.ar      1 CK9        -0.0398
      4 C22         4.9420   10.6450   31.3430 C.ar      1 CK9        -0.0776
      5 C21         5.4970    9.3750   31.6790 C.ar      1 CK9        -0.0797
      6 C20         5.3710    8.2830   30.7740 C.ar      1 CK9        -0.0668
      7 C19         4.7060    8.4760   29.5380 C.ar      1 CK9         0.0085
      8 C18         4.5230    7.3480   28.5790 C.3       1 CK9         0.0615
      9 N17         3.5280    6.4870   28.6970 N.pl3     1 CK9        -0.2937
     10 C4          2.4240    6.4650   28.1680 C.ar      1 CK9         0.1219
     11 C5          1.5150    5.4070   28.2980 C.ar      1 CK9         0.0919
     12 N9          1.4980    4.2120   28.9170 N.2       1 CK9        -0.3043
     13 C8          0.3690    3.6070   28.6340 C.2       1 CK9         0.1048
     14 C6          0.2650    5.5380   27.5840 C.ar      1 CK9         0.1424
     15 N7         -0.4450    4.3860   27.8110 N.pl3     1 CK9        -0.2248
     16 C10        -1.8090    4.0590   27.2480 C.3       1 CK9         0.0648
     17 C12        -1.6370    3.7090   25.7810 C.3       1 CK9        -0.0349
     18 C11        -2.9320    5.1140   27.3750 C.3       1 CK9        -0.0349
     19 N3         -0.0340    6.6310   26.8070 N.ar      1 CK9        -0.2645
     20 C2          0.8550    7.6550   26.7100 C.ar      1 CK9         0.1544
     21 N1          2.0320    7.5560   27.3930 N.ar      1 CK9        -0.2560
     22 N13         0.6230    8.6970   25.9820 N.pl3     1 CK9        -0.2923
     23 C14        -0.5390    8.8980   25.0470 C.3       1 CK9         0.0634
     24 C25        -1.6670    9.6260   25.8740 C.3       1 CK9        -0.0304
     25 C26        -1.5940   11.1530   26.1440 C.3       1 CK9        -0.0631
     26 C15        -1.0700    7.6310   24.2720 C.3       1 CK9         0.0673
     27 O16        -0.2060    7.0360   23.2990 O.3       1 CK9        -0.3927
     28 H1          3.4973    9.0139   27.5331 H         1 CK9         0.2456
     29 H2          3.8384   11.7891   29.8443 H         1 CK9         0.0521
     30 H3          5.0379   11.4767   32.0315 H         1 CK9         0.0531
     31 H4          6.0142    9.2412   32.6222 H         1 CK9         0.0505
     32 H5          5.7805    7.3121   31.0286 H         1 CK9         0.0526
     33 H6          5.4494    6.7562   28.6182 H         1 CK9         0.0665
     34 H7          4.4206    7.8033   27.5829 H         1 CK9         0.0665
     35 H8          3.7114    5.7043   29.3409 H         1 CK9         0.1880
     36 H9          0.0996    2.6164   28.9975 H         1 CK9         0.1309
     37 H10        -2.1617    3.1642   27.7819 H         1 CK9         0.0642
     38 H11        -2.6171    3.4660   25.3447 H         1 CK9         0.0259
     39 H12        -0.9684    2.8406   25.6871 H         1 CK9         0.0259
     40 H13        -1.2010    4.5668   25.2480 H         1 CK9         0.0259
     41 H14        -3.8542    4.7245   26.9192 H         1 CK9         0.0259
     42 H15        -2.6288    6.0364   26.8580 H         1 CK9         0.0259
     43 H16        -3.1121    5.3317   28.4381 H         1 CK9         0.0259
     44 H17         1.3023    9.4684   26.0483 H         1 CK9         0.1849
     45 H18        -0.1980    9.5957   24.2680 H         1 CK9         0.0581
     46 H19        -1.7016    9.1348   26.8576 H         1 CK9         0.0286
     47 H20        -2.6123    9.4465   25.3410 H         1 CK9         0.0286
     48 H21        -2.4693   11.4634   26.7334 H         1 CK9         0.0231
     49 H22        -1.5859   11.6947   25.1867 H         1 CK9         0.0231
     50 H23        -0.6751   11.3830   26.7033 H         1 CK9         0.0231
     51 H24        -1.9942    7.9264   23.7537 H         1 CK9         0.0580
     52 H25        -1.3005    6.8599   25.0219 H         1 CK9         0.0580
     53 H26        -0.6403    6.2875   22.9071 H         1 CK9         0.2095
@<TRIPOS>BOND
     1    1    2 1  
     2    2    3 ar 
     3    2    7 ar 
     4    3    4 ar 
     5    4    5 ar 
     6    5    6 ar 
     7    6    7 ar 
     8    7    8 1  
     9    8    9 1  
    10    9   10 1  
    11   10   11 ar 
    12   10   21 ar 
    13   11   12 1  
    14   11   14 ar 
    15   12   13 2  
    16   13   15 1  
    17   14   15 1  
    18   14   19 ar 
    19   15   16 1  
    20   16   17 1  
    21   16   18 1  
    22   19   20 ar 
    23   20   21 ar 
    24   20   22 1  
    25   22   23 1  
    26   23   24 1  
    27   23   26 1  
    28   24   25 1  
    29   26   27 1  
    30    1   28 1  
    31    3   29 1  
    32    4   30 1  
    33    5   31 1  
    34    6   32 1  
    35    8   33 1  
    36    8   34 1  
    37    9   35 1  
    38   13   36 1  
    39   16   37 1  
    40   17   38 1  
    41   17   39 1  
    42   17   40 1  
    43   18   41 1  
    44   18   42 1  
    45   18   43 1  
    46   22   44 1  
    47   23   45 1  
    48   24   46 1  
    49   24   47 1  
    50   25   48 1  
    51   25   49 1  
    52   25   50 1  
    53   26   51 1  
    54   26   52 1  
    55   27   53 1  
@<TRIPOS>SUBSTRUCTURE
     1 CK9         1

