### 
### Created by X-TOOL on Mon Sep 10 21:12:52 2018
### 

@<TRIPOS>MOLECULE
2a14_ligand
   46    48     1     0     0
SMALL
GAST_HUCK


@<TRIPOS>ATOM
      1 N          18.6650   40.4080    7.5850 N.4       1 SAH         0.2327
      2 CA         19.8600   39.6850    8.1230 C.3       1 SAH         0.0291
      3 CB         21.0470   40.6200    8.4200 C.3       1 SAH         0.0114
      4 CG         20.8660   41.6720    9.5290 C.3       1 SAH         0.0005
      5 SD         22.4720   42.3730   10.0020 S.3       1 SAH        -0.1578
      6 C          19.4580   38.7810    9.3020 C.2       1 SAH         0.0844
      7 O          18.2580   38.5000    9.4550 O.co2     1 SAH        -0.5643
      8 OXT        20.3010   38.3090   10.0770 O.co2     1 SAH        -0.5643
      9 C5'        22.2510   44.1150    9.5370 C.3       1 SAH         0.0226
     10 C4'        22.3030   44.3790    8.0350 C.3       1 SAH         0.0995
     11 O4'        22.0280   45.7600    7.8240 O.3       1 SAH        -0.3383
     12 C3'        23.6620   44.1040    7.3730 C.3       1 SAH         0.1132
     13 O3'        23.4900   43.1180    6.3710 O.3       1 SAH        -0.3864
     14 C2'        24.0720   45.4500    6.7810 C.3       1 SAH         0.1385
     15 O2'        24.7760   45.3980    5.5510 O.3       1 SAH        -0.3836
     16 C1'        22.6970   46.0970    6.6240 C.3       1 SAH         0.2009
     17 N9         22.7210   47.5470    6.4220 N.pl3     1 SAH        -0.1919
     18 C8         23.5110   48.4940    7.0180 C.2       1 SAH         0.1123
     19 N7         23.1790   49.7030    6.5120 N.2       1 SAH        -0.2958
     20 C5         22.1770   49.5520    5.6150 C.ar      1 SAH         0.1045
     21 C6         21.4630   50.4500    4.8180 C.ar      1 SAH         0.1298
     22 N6         21.7140   51.7710    4.8460 N.pl3     1 SAH        -0.3152
     23 N1         20.4740   49.9560    4.0020 N.ar      1 SAH        -0.2698
     24 C2         20.1930   48.6000    3.9460 C.ar      1 SAH         0.0533
     25 N3         20.9050   47.7190    4.7350 N.ar      1 SAH        -0.2714
     26 C4         21.8770   48.1910    5.5540 C.ar      1 SAH         0.1613
     27 H1         18.9458   40.9945    6.8148 H         1 SAH         0.2010
     28 H2         18.2619   40.9782    8.3119 H         1 SAH         0.2010
     29 H3         17.9826   39.7383    7.2659 H         1 SAH         0.2010
     30 H4         20.2032   39.0123    7.3232 H         1 SAH         0.1024
     31 H5         21.2818   41.1591    7.4904 H         1 SAH         0.0347
     32 H6         21.9013   39.9875    8.7029 H         1 SAH         0.0347
     33 H7         20.4046   41.1973   10.4075 H         1 SAH         0.0379
     34 H8         20.2128   42.4773    9.1619 H         1 SAH         0.0379
     35 H9         23.0472   44.7028   10.0171 H         1 SAH         0.0402
     36 H10        21.2721   44.4492    9.9111 H         1 SAH         0.0402
     37 H11        21.5380   43.7589    7.5449 H         1 SAH         0.0632
     38 H12        24.4037   43.7614    8.1095 H         1 SAH         0.0647
     39 H13        22.8725   43.4327    5.7213 H         1 SAH         0.2100
     40 H14        24.6902   46.0075    7.5000 H         1 SAH         0.0676
     41 H15        24.2348   44.9740    4.8953 H         1 SAH         0.2101
     42 H16        22.1794   45.6456    5.7647 H         1 SAH         0.0996
     43 H17        24.2754   48.3054    7.7704 H         1 SAH         0.1349
     44 H18        21.1723   52.4109    4.2477 H         1 SAH         0.1820
     45 H19        22.4479   52.1427    5.4657 H         1 SAH         0.1820
     46 H20        19.4166   48.2324    3.2848 H         1 SAH         0.0996
@<TRIPOS>BOND
     1    1    2 1  
     2    2    3 1  
     3    2    6 1  
     4    3    4 1  
     5    4    5 1  
     6    5    9 1  
     7    6    7 ar 
     8    6    8 ar 
     9    9   10 1  
    10   10   11 1  
    11   10   12 1  
    12   11   16 1  
    13   12   13 1  
    14   12   14 1  
    15   14   15 1  
    16   14   16 1  
    17   16   17 1  
    18   17   18 1  
    19   17   26 1  
    20   18   19 2  
    21   19   20 1  
    22   20   21 ar 
    23   20   26 ar 
    24   21   22 1  
    25   21   23 ar 
    26   23   24 ar 
    27   24   25 ar 
    28   25   26 ar 
    29    1   27 1  
    30    1   28 1  
    31    1   29 1  
    32    2   30 1  
    33    3   31 1  
    34    3   32 1  
    35    4   33 1  
    36    4   34 1  
    37    9   35 1  
    38    9   36 1  
    39   10   37 1  
    40   12   38 1  
    41   13   39 1  
    42   14   40 1  
    43   15   41 1  
    44   16   42 1  
    45   18   43 1  
    46   22   44 1  
    47   22   45 1  
    48   24   46 1  
@<TRIPOS>SUBSTRUCTURE
     1 SAH         1

