### 
### Created by X-TOOL on Mon Sep 10 21:12:47 2018
### 

@<TRIPOS>MOLECULE
2a2g_ligand
   27    28     1     0     0
SMALL
GAST_HUCK


@<TRIPOS>ATOM
      1 C2         21.3400    1.4530   58.7970 C.3       1 LEO        -0.0092
      2 C3         19.4020    2.4970   57.4160 C.3       1 LEO         0.0936
      3 C4         19.0920    0.3830   58.8100 C.3       1 LEO        -0.0356
      4 C5         18.5390    1.2760   57.6840 C.3       1 LEO        -0.0191
      5 C6         20.6000    0.1040   58.6340 C.3       1 LEO        -0.0041
      6 C7         20.7750    2.5590   57.9450 C.3       1 LEO         0.0905
      7 C8         18.6860    3.7800   57.0670 C.3       1 LEO        -0.0333
      8 O14        20.5580    2.2300   56.5260 O.3       1 LEO        -0.3648
      9 C17        20.9370   -0.6800   57.3570 C.2       1 LEO        -0.0734
     10 C21        20.0950   -0.7600   56.3450 C.2       1 LEO        -0.1290
     11 C22        22.2440   -1.4480   57.3280 C.3       1 LEO        -0.0297
     12 H1         22.3947    1.3063   58.5213 H         1 LEO         0.0320
     13 H2         21.2758    1.7594   59.8515 H         1 LEO         0.0320
     14 H3         18.5500   -0.5742   58.8037 H         1 LEO         0.0295
     15 H4         18.9338    0.8876   59.7745 H         1 LEO         0.0295
     16 H5         18.4791    0.6799   56.7615 H         1 LEO         0.0296
     17 H6         17.5316    1.6144   57.9680 H         1 LEO         0.0296
     18 H7         20.9141   -0.5379   59.4703 H         1 LEO         0.0496
     19 H8         21.1969    3.5277   58.2510 H         1 LEO         0.0627
     20 H9         17.6794    3.5471   56.6896 H         1 LEO         0.0258
     21 H10        19.2528    4.3172   56.2923 H         1 LEO         0.0258
     22 H11        18.6042    4.4102   57.9649 H         1 LEO         0.0258
     23 H12        20.3664   -1.3246   55.4542 H         1 LEO         0.0075
     24 H13        19.1284   -0.2614   56.4002 H         1 LEO         0.0075
     25 H14        22.3491   -1.9563   56.3582 H         1 LEO         0.0425
     26 H15        22.2486   -2.1947   58.1357 H         1 LEO         0.0425
     27 H16        23.0826   -0.7502   57.4690 H         1 LEO         0.0425
@<TRIPOS>BOND
     1    1    5 1  
     2    6    1 1  
     3    2    4 1  
     4    2    6 1  
     5    2    7 1  
     6    2    8 1  
     7    4    3 1  
     8    3    5 1  
     9    5    9 1  
    10    6    8 1  
    11    9   10 2  
    12    9   11 1  
    13    1   12 1  
    14    1   13 1  
    15    3   14 1  
    16    3   15 1  
    17    4   16 1  
    18    4   17 1  
    19    5   18 1  
    20    6   19 1  
    21    7   20 1  
    22    7   21 1  
    23    7   22 1  
    24   10   23 1  
    25   10   24 1  
    26   11   25 1  
    27   11   26 1  
    28   11   27 1  
@<TRIPOS>SUBSTRUCTURE
     1 LEO         1

