### 
### Created by X-TOOL on Mon Sep 10 21:12:54 2018
### 

@<TRIPOS>MOLECULE
2a2x_ligand
   67    68     1     0     0
SMALL
GAST_HUCK


@<TRIPOS>ATOM
      1 C1         12.4160   20.9810   22.4580 C.ar      1 NA9        -0.0350
      2 C2         12.1040   22.2140   23.0930 C.ar      1 NA9         0.0917
      3 N3         12.7230   23.3480   22.7090 N.ar      1 NA9        -0.2990
      4 C4         13.6450   23.3730   21.7340 C.ar      1 NA9         0.0144
      5 C5         14.0050   22.1920   21.0610 C.ar      1 NA9         0.0070
      6 C6         13.3810   20.9770   21.4290 C.ar      1 NA9        -0.0385
      7 C7         15.0460   22.2250   19.9720 C.3       1 NA9         0.0706
      8 C8         11.1000   22.2730   24.1850 C.cat     1 NA9         0.2487
      9 N9         10.3980   21.1890   24.5240 N.pl3     1 NA9        -0.2713
     10 N10        10.9090   23.4190   24.8350 N.pl3     1 NA9        -0.2713
     11 N11        16.3750   22.1220   20.5990 N.am      1 NA9        -0.2725
     12 C12        17.1270   20.9880   20.5150 C.2       1 NA9         0.2035
     13 C13        18.4710   20.9460   21.1980 C.3       1 NA9         0.1307
     14 O14        16.7290   20.0050   19.9140 O.2       1 NA9        -0.3944
     15 C15        19.5720   21.3730   20.2110 C.3       1 NA9        -0.0242
     16 C16        19.7050   18.6630   21.1420 C.3       1 NA9         0.0255
     17 N17        18.7030   19.5640   21.7630 N.am      1 NA9        -0.2505
     18 C18        17.9700   19.1410   22.8710 C.2       1 NA9         0.2291
     19 C19        18.1620   17.7540   23.4920 C.3       1 NA9         0.0685
     20 O20        17.1470   19.8810   23.3700 O.2       1 NA9        -0.3905
     21 N21        16.9170   16.9810   23.3260 N.4       1 NA9         0.2577
     22 C22        16.3280   16.7280   22.0020 C.3       1 NA9         0.0214
     23 C23        14.8510   16.4450   22.1540 C.2       1 NA9         0.0813
     24 O24        14.3770   16.2070   23.2590 O.co2     1 NA9        -0.5645
     25 O25        14.1270   16.4540   21.1660 O.co2     1 NA9        -0.5645
     26 C26        18.4380   17.8530   24.9980 C.3       1 NA9         0.0108
     27 C27        19.8950   18.0940   25.4300 C.3       1 NA9        -0.0338
     28 C28        20.9610   17.6870   24.3790 C.3       1 NA9        -0.0499
     29 C29        22.3790   17.9240   24.9520 C.3       1 NA9        -0.0528
     30 C30        22.5640   19.4070   25.3530 C.3       1 NA9        -0.0530
     31 C31        21.4970   19.8170   26.3920 C.3       1 NA9        -0.0528
     32 C32        20.0780   19.5860   25.8140 C.3       1 NA9        -0.0499
     33 H1         11.9229   20.0635   22.7581 H         1 NA9         0.0693
     34 H2         14.1159   24.3111   21.4632 H         1 NA9         0.0766
     35 H3         13.6415   20.0529   20.9258 H         1 NA9         0.0678
     36 H4         14.9704   23.1698   19.4137 H         1 NA9         0.0699
     37 H5         14.8925   21.3798   19.2850 H         1 NA9         0.0699
     38 H6          9.7040   21.2415   25.2833 H         1 NA9         0.3181
     39 H7         10.5505   20.3002   24.0262 H         1 NA9         0.3181
     40 H8         11.4502   24.2555   24.5739 H         1 NA9         0.3181
     41 H9         10.2200   23.4691   25.5990 H         1 NA9         0.3181
     42 H10        16.7364   22.9075   21.1013 H         1 NA9         0.1880
     43 H11        18.4650   21.6616   22.0334 H         1 NA9         0.0799
     44 H12        19.3535   22.3824   19.8323 H         1 NA9         0.0277
     45 H13        19.6051   20.6650   19.3698 H         1 NA9         0.0277
     46 H14        20.5443   21.3769   20.7255 H         1 NA9         0.0277
     47 H15        19.7296   17.7093   21.6895 H         1 NA9         0.0488
     48 H16        20.6978   19.1350   21.1829 H         1 NA9         0.0488
     49 H17        19.4305   18.4767   20.0932 H         1 NA9         0.0488
     50 H18        18.9979   17.2417   22.9933 H         1 NA9         0.1099
     51 H19        16.2119   17.4631   23.8611 H         1 NA9         0.2049
     52 H20        17.0897   16.0763   23.7356 H         1 NA9         0.2049
     53 H21        16.8221   15.8603   21.5405 H         1 NA9         0.0989
     54 H22        16.4681   17.6124   21.3631 H         1 NA9         0.0989
     55 H23        18.1079   16.9099   25.4580 H         1 NA9         0.0348
     56 H24        17.8342   18.6840   25.3915 H         1 NA9         0.0348
     57 H25        20.0742   17.4833   26.3272 H         1 NA9         0.0304
     58 H26        20.8282   18.2929   23.4706 H         1 NA9         0.0268
     59 H27        20.8409   16.6222   24.1304 H         1 NA9         0.0268
     60 H28        23.1260   17.6601   24.1889 H         1 NA9         0.0265
     61 H29        22.5211   17.2893   25.8391 H         1 NA9         0.0265
     62 H30        22.4627   20.0402   24.4593 H         1 NA9         0.0265
     63 H31        23.5652   19.5435   25.7876 H         1 NA9         0.0265
     64 H32        21.6203   20.8815   26.6402 H         1 NA9         0.0265
     65 H33        21.6227   19.2115   27.3017 H         1 NA9         0.0265
     66 H34        19.3280   19.8618   26.5699 H         1 NA9         0.0268
     67 H35        19.9436   20.2112   24.9190 H         1 NA9         0.0268
@<TRIPOS>BOND
     1    1    2 ar 
     2    1    6 ar 
     3    2    3 ar 
     4    2    8 1  
     5    3    4 ar 
     6    4    5 ar 
     7    5    6 ar 
     8    5    7 1  
     9    7   11 1  
    10    8    9 ar 
    11    8   10 ar 
    12   11   12 am 
    13   12   13 1  
    14   12   14 2  
    15   13   15 1  
    16   13   17 1  
    17   17   16 1  
    18   17   18 am 
    19   18   19 1  
    20   18   20 2  
    21   19   21 1  
    22   19   26 1  
    23   21   22 1  
    24   22   23 1  
    25   23   24 ar 
    26   23   25 ar 
    27   26   27 1  
    28   27   28 1  
    29   27   32 1  
    30   28   29 1  
    31   29   30 1  
    32   30   31 1  
    33   31   32 1  
    34    1   33 1  
    35    4   34 1  
    36    6   35 1  
    37    7   36 1  
    38    7   37 1  
    39    9   38 1  
    40    9   39 1  
    41   10   40 1  
    42   10   41 1  
    43   11   42 1  
    44   13   43 1  
    45   15   44 1  
    46   15   45 1  
    47   15   46 1  
    48   16   47 1  
    49   16   48 1  
    50   16   49 1  
    51   19   50 1  
    52   21   51 1  
    53   21   52 1  
    54   22   53 1  
    55   22   54 1  
    56   26   55 1  
    57   26   56 1  
    58   27   57 1  
    59   28   58 1  
    60   28   59 1  
    61   29   60 1  
    62   29   61 1  
    63   30   62 1  
    64   30   63 1  
    65   31   64 1  
    66   31   65 1  
    67   32   66 1  
    68   32   67 1  
@<TRIPOS>SUBSTRUCTURE
     1 NA9         1

