### 
### Created by X-TOOL on Mon Sep 10 21:12:52 2018
### 

@<TRIPOS>MOLECULE
2a3w_ligand
   52    53     1     0     0
SMALL
GAST_HUCK


@<TRIPOS>ATOM
      1 O31        11.2230   17.2110  -36.7420 O.co2     1 CPJ        -0.5426
      2 C29        11.2800   16.2740  -35.9100 C.2       1 CPJ         0.1037
      3 O30        12.2260   16.1510  -35.1000 O.co2     1 CPJ        -0.5426
      4 C26        10.1750   15.2410  -35.8940 C.3       1 CPJ         0.2147
      5 O27         8.9080   15.9210  -36.0060 O.3       1 CPJ        -0.3440
      6 C28         7.7520   15.1250  -35.7240 C.3       1 CPJ         0.0825
      7 C32        10.3870   14.3130  -37.0940 C.3       1 CPJ        -0.0049
      8 O25        10.2770   14.4960  -34.6650 O.3       1 CPJ        -0.3440
      9 C24         9.1610   13.6570  -34.3430 C.3       1 CPJ         0.0825
     10 C23         7.8930   14.4960  -34.3420 C.3       1 CPJ         0.1344
     11 O22         8.0570   15.5620  -33.4130 O.3       1 CPJ        -0.2560
     12 C20         6.8080   16.1750  -32.9800 C.2       1 CPJ         0.3199
     13 O21         5.7370   15.7490  -33.4000 O.2       1 CPJ        -0.3775
     14 N17         6.9240   17.1900  -32.1200 N.am      1 CPJ        -0.2606
     15 C16         5.7920   17.9150  -31.5780 C.3       1 CPJ         0.0529
     16 C15         5.0400   17.0550  -30.5820 C.3       1 CPJ         0.0529
     17 N14         3.8620   17.7090  -30.0550 N.am      1 CPJ        -0.2606
     18 C12         3.7540   17.9330  -28.7510 C.2       1 CPJ         0.3199
     19 O13         4.6230   17.6180  -27.9450 O.2       1 CPJ        -0.3775
     20 O11         2.5400   18.5800  -28.2870 O.3       1 CPJ        -0.2560
     21 C3          2.5480   18.7540  -26.8720 C.3       1 CPJ         0.1344
     22 C2          2.7800   20.2230  -26.5370 C.3       1 CPJ         0.0825
     23 O1          1.6850   20.9980  -27.0270 O.3       1 CPJ        -0.3440
     24 C4          1.1950   18.3090  -26.3260 C.3       1 CPJ         0.0825
     25 O5          0.1710   19.1720  -26.8310 O.3       1 CPJ        -0.3440
     26 C6          0.3850   20.5740  -26.5810 C.3       1 CPJ         0.2147
     27 C10         0.1740   20.8940  -25.1000 C.3       1 CPJ        -0.0049
     28 C7         -0.6130   21.3760  -27.3690 C.2       1 CPJ         0.1037
     29 O8         -1.6340   20.8150  -27.8300 O.co2     1 CPJ        -0.5426
     30 O9         -0.3770   22.5900  -27.5270 O.co2     1 CPJ        -0.5426
     31 H1          7.6597   14.3316  -36.4803 H         1 CPJ         0.0589
     32 H2          6.8545   15.7605  -35.7478 H         1 CPJ         0.0589
     33 H3          9.5966   13.5481  -37.1101 H         1 CPJ         0.0274
     34 H4         11.3687   13.8240  -37.0104 H         1 CPJ         0.0274
     35 H5         10.3478   14.9004  -38.0232 H         1 CPJ         0.0274
     36 H6          9.3093   13.2122  -33.3479 H         1 CPJ         0.0589
     37 H7          9.0729   12.8570  -35.0928 H         1 CPJ         0.0589
     38 H8          7.0150   13.8829  -34.0908 H         1 CPJ         0.0694
     39 H9          7.8421   17.4649  -31.8343 H         1 CPJ         0.1868
     40 H10         5.1149   18.1953  -32.3983 H         1 CPJ         0.0539
     41 H11         6.1519   18.8235  -31.0729 H         1 CPJ         0.0539
     42 H12         5.7130   16.8155  -29.7456 H         1 CPJ         0.0539
     43 H13         4.7317   16.1252  -31.0825 H         1 CPJ         0.0539
     44 H14         3.1289   17.9924  -30.6732 H         1 CPJ         0.1868
     45 H15         3.3480   18.1446  -26.4263 H         1 CPJ         0.0694
     46 H16         3.7125   20.5648  -27.0098 H         1 CPJ         0.0589
     47 H17         2.8563   20.3435  -25.4463 H         1 CPJ         0.0589
     48 H18         1.2082   18.3592  -25.2272 H         1 CPJ         0.0589
     49 H19         0.9932   17.2753  -26.6435 H         1 CPJ         0.0589
     50 H20         0.3417   21.9677  -24.9294 H         1 CPJ         0.0274
     51 H21         0.8836   20.3113  -24.4942 H         1 CPJ         0.0274
     52 H22        -0.8549   20.6332  -24.8115 H         1 CPJ         0.0274
@<TRIPOS>BOND
     1    1    2 ar 
     2    2    3 ar 
     3    2    4 1  
     4    4    5 1  
     5    4    7 1  
     6    4    8 1  
     7    5    6 1  
     8    6   10 1  
     9    8    9 1  
    10    9   10 1  
    11   10   11 1  
    12   11   12 1  
    13   12   13 2  
    14   12   14 am 
    15   14   15 1  
    16   15   16 1  
    17   16   17 1  
    18   17   18 am 
    19   18   19 2  
    20   18   20 1  
    21   20   21 1  
    22   21   22 1  
    23   21   24 1  
    24   22   23 1  
    25   23   26 1  
    26   24   25 1  
    27   25   26 1  
    28   26   27 1  
    29   26   28 1  
    30   28   29 ar 
    31   28   30 ar 
    32    6   31 1  
    33    6   32 1  
    34    7   33 1  
    35    7   34 1  
    36    7   35 1  
    37    9   36 1  
    38    9   37 1  
    39   10   38 1  
    40   14   39 1  
    41   15   40 1  
    42   15   41 1  
    43   16   42 1  
    44   16   43 1  
    45   17   44 1  
    46   21   45 1  
    47   22   46 1  
    48   22   47 1  
    49   24   48 1  
    50   24   49 1  
    51   27   50 1  
    52   27   51 1  
    53   27   52 1  
@<TRIPOS>SUBSTRUCTURE
     1 CPJ         1

