### 
### Created by X-TOOL on Mon Sep 10 21:12:53 2018
### 

@<TRIPOS>MOLECULE
2a3x_ligand
   56    58     1     0     0
SMALL
GAST_HUCK


@<TRIPOS>ATOM
      1 O30       -26.2960   74.7970   74.3430 O.co2     1 CPK        -0.5426
      2 C29       -25.5830   75.7710   74.6800 C.2       1 CPK         0.1037
      3 O31       -25.3380   76.0450   75.8770 O.co2     1 CPK        -0.5426
      4 C26       -24.9670   76.6490   73.6210 C.3       1 CPK         0.2147
      5 O27       -25.4780   76.2970   72.3280 O.3       1 CPK        -0.3440
      6 C28       -25.1090   77.1840   71.2680 C.3       1 CPK         0.0825
      7 C32       -23.4630   76.3940   73.6600 C.3       1 CPK        -0.0049
      8 O25       -25.2910   78.0070   73.9540 O.3       1 CPK        -0.3440
      9 C24       -24.9210   78.9790   72.9750 C.3       1 CPK         0.0825
     10 C23       -25.5210   78.6060   71.6230 C.3       1 CPK         0.1344
     11 O22       -26.9400   78.6430   71.6900 O.3       1 CPK        -0.2558
     12 C20       -27.5030   79.9030   71.3190 C.2       1 CPK         0.3226
     13 O21       -26.6940   80.8810   70.6710 O.2       1 CPK        -0.3774
     14 N17       -28.9540   80.0060   71.2390 N.am      1 CPK        -0.2450
     15 C16       -29.6110   79.8860   72.5360 C.3       1 CPK         0.0562
     16 C15       -31.0210   80.4320   72.3220 C.3       1 CPK         0.0562
     17 C18       -29.4550   79.2660   70.0880 C.3       1 CPK         0.0562
     18 C19       -30.8610   79.8130   69.8770 C.3       1 CPK         0.0562
     19 N14       -31.5300   79.7010   71.1680 N.am      1 CPK        -0.2450
     20 C12       -32.9680   79.8510   70.9610 C.2       1 CPK         0.3226
     21 O13       -33.7770   78.6860   70.9020 O.2       1 CPK        -0.3774
     22 O11       -33.5890   81.1240   71.1820 O.3       1 CPK        -0.2558
     23 C3        -35.0110   81.0960   71.0290 C.3       1 CPK         0.1344
     24 C2        -35.7480   80.9520   72.3610 C.3       1 CPK         0.0825
     25 O1        -35.6740   82.1520   73.1370 O.3       1 CPK        -0.3440
     26 C4        -35.4680   82.3750   70.3350 C.3       1 CPK         0.0825
     27 O5        -35.4000   83.5080   71.2100 O.3       1 CPK        -0.3440
     28 C6        -36.0540   83.3670   72.4750 C.3       1 CPK         0.2147
     29 C10       -37.5670   83.4440   72.2660 C.3       1 CPK        -0.0049
     30 C7        -35.6240   84.5020   73.3750 C.2       1 CPK         0.1037
     31 O8        -36.0600   84.5400   74.5470 O.co2     1 CPK        -0.5426
     32 O9        -34.8390   85.3730   72.9390 O.co2     1 CPK        -0.5426
     33 H1        -25.6156   76.8771   70.3411 H         1 CPK         0.0589
     34 H2        -24.0196   77.1448   71.1208 H         1 CPK         0.0589
     35 H3        -22.9659   77.0155   72.9006 H         1 CPK         0.0274
     36 H4        -23.2656   75.3322   73.4513 H         1 CPK         0.0274
     37 H5        -23.0733   76.6505   74.6561 H         1 CPK         0.0274
     38 H6        -23.8248   79.0134   72.8908 H         1 CPK         0.0589
     39 H7        -25.2965   79.9666   73.2810 H         1 CPK         0.0589
     40 H8        -25.1638   79.3066   70.8539 H         1 CPK         0.0694
     41 H9        -29.0787   80.4788   73.2945 H         1 CPK         0.0541
     42 H10       -29.6489   78.8335   72.8534 H         1 CPK         0.0541
     43 H11       -30.9915   81.5119   72.1148 H         1 CPK         0.0541
     44 H12       -31.6476   80.2453   73.2066 H         1 CPK         0.0541
     45 H13       -29.4837   78.1870   70.3000 H         1 CPK         0.0541
     46 H14       -28.8280   79.4493   69.2030 H         1 CPK         0.0541
     47 H15       -31.3924   79.2204   69.1178 H         1 CPK         0.0541
     48 H16       -30.8187   80.8648   69.5577 H         1 CPK         0.0541
     49 H17       -35.2720   80.2345   70.3968 H         1 CPK         0.0694
     50 H18       -35.2945   80.1289   72.9326 H         1 CPK         0.0589
     51 H19       -36.8047   80.7210   72.1610 H         1 CPK         0.0589
     52 H20       -36.5076   82.2462   69.9993 H         1 CPK         0.0589
     53 H21       -34.8215   82.5583   69.4641 H         1 CPK         0.0589
     54 H22       -38.0769   83.3363   73.2347 H         1 CPK         0.0274
     55 H23       -37.8857   82.6352   71.5920 H         1 CPK         0.0274
     56 H24       -37.8267   84.4159   71.8210 H         1 CPK         0.0274
@<TRIPOS>BOND
     1    1    2 ar 
     2    2    3 ar 
     3    2    4 1  
     4    4    5 1  
     5    4    7 1  
     6    4    8 1  
     7    5    6 1  
     8    6   10 1  
     9    8    9 1  
    10    9   10 1  
    11   10   11 1  
    12   11   12 1  
    13   12   13 2  
    14   12   14 am 
    15   14   15 1  
    16   14   17 1  
    17   15   16 1  
    18   16   19 1  
    19   17   18 1  
    20   18   19 1  
    21   19   20 am 
    22   20   21 2  
    23   20   22 1  
    24   22   23 1  
    25   23   24 1  
    26   23   26 1  
    27   24   25 1  
    28   25   28 1  
    29   26   27 1  
    30   27   28 1  
    31   28   29 1  
    32   28   30 1  
    33   30   31 ar 
    34   30   32 ar 
    35    6   33 1  
    36    6   34 1  
    37    7   35 1  
    38    7   36 1  
    39    7   37 1  
    40    9   38 1  
    41    9   39 1  
    42   10   40 1  
    43   15   41 1  
    44   15   42 1  
    45   16   43 1  
    46   16   44 1  
    47   17   45 1  
    48   17   46 1  
    49   18   47 1  
    50   18   48 1  
    51   23   49 1  
    52   24   50 1  
    53   24   51 1  
    54   26   52 1  
    55   26   53 1  
    56   29   54 1  
    57   29   55 1  
    58   29   56 1  
@<TRIPOS>SUBSTRUCTURE
     1 CPK         1

