### 
### Created by X-TOOL on Mon Sep 10 21:12:54 2018
### 

@<TRIPOS>MOLECULE
2a4g_ligand
  105   106     1     0     0
SMALL
GAST_HUCK


@<TRIPOS>ATOM
      1 C1        192.1520  -10.5310   49.0320 C.2       1 UNH         0.3218
      2 O2        192.7820  -11.3530   49.7070 O.2       1 UNH        -0.3774
      3 O3        190.9290  -10.3640   48.9220 O.3       1 UNH        -0.2636
      4 C4        190.1620  -11.1160   49.8060 C.3       1 UNH         0.0796
      5 C5        188.8870  -10.3230   50.0490 C.3       1 UNH        -0.0189
      6 C6        187.7360  -10.9900   49.3210 C.3       1 UNH        -0.0603
      7 C7        188.6130  -10.2300   51.5370 C.3       1 UNH        -0.0603
      8 N8        192.7440   -9.6270   48.2640 N.am      1 UNH        -0.2409
      9 C9        194.1890   -9.4660   48.2640 C.3       1 UNH         0.1356
     10 C10       194.6450   -8.6690   47.0510 C.3       1 UNH        -0.0006
     11 C11       196.1610   -8.5050   47.0410 C.3       1 UNH        -0.0460
     12 C12       196.6480   -7.7270   45.8400 C.3       1 UNH        -0.0526
     13 C13       196.1900   -8.4010   44.5510 C.3       1 UNH        -0.0530
     14 C14       194.6760   -8.6140   44.5250 C.3       1 UNH        -0.0526
     15 C15       194.2210   -9.3620   45.7600 C.3       1 UNH        -0.0460
     16 C16       194.6220   -8.7120   49.5060 C.2       1 UNH         0.2041
     17 O17       194.1500   -7.6020   49.7570 O.2       1 UNH        -0.3944
     18 N18       195.5130   -9.3180   50.2800 N.am      1 UNH        -0.2637
     19 C19       196.0080   -8.6840   51.4890 C.3       1 UNH         0.1311
     20 C20       196.6570   -9.7140   52.4060 C.3       1 UNH        -0.0101
     21 C21       195.7720  -10.8760   52.8590 C.3       1 UNH        -0.0425
     22 C22       196.4900  -11.6550   53.9350 C.3       1 UNH        -0.0625
     23 C23       194.4610  -10.3590   53.3870 C.3       1 UNH        -0.0625
     24 C24       197.0060   -7.6010   51.1020 C.2       1 UNH         0.2021
     25 O25       198.0120   -7.8770   50.4450 O.2       1 UNH        -0.3945
     26 N26       196.6970   -6.3620   51.4730 N.am      1 UNH        -0.2772
     27 C27       197.5450   -5.2190   51.1620 C.3       1 UNH         0.0850
     28 C28       196.7620   -4.1940   50.3330 C.3       1 UNH        -0.0255
     29 C29       196.8230   -4.4370   48.8320 C.3       1 UNH        -0.0536
     30 C30       195.4420   -4.5890   48.3180 C.3       1 UNH        -0.0652
     31 O31       198.7500   -5.8180   53.1790 O.3       1 UNH        -0.3691
     32 C32       198.3060   -4.7280   52.3810 C.3       1 UNH         0.1663
     33 O33       199.3770   -2.8110   51.4470 O.2       1 UNH        -0.3940
     34 N34       200.6880   -4.5480   51.9340 N.am      1 UNH        -0.2661
     35 C35       201.9350   -3.8820   51.6090 C.3       1 UNH         0.1203
     36 C36       202.3130   -4.0080   50.1540 C.2       1 UNH         0.2025
     37 O37       201.5480   -4.5080   49.3230 O.2       1 UNH        -0.3945
     38 C38       199.5100   -3.9490   51.8810 C.2       1 UNH         0.2093
     39 N39       203.5070   -3.5190   49.8490 N.am      1 UNH        -0.2534
     40 C40       204.0500   -3.5630   48.5040 C.3       1 UNH         0.1641
     41 C41       203.8550   -2.2780   47.7430 C.ar      1 UNH         0.0010
     42 C42       203.9310   -1.0460   48.3870 C.ar      1 UNH        -0.0557
     43 C43       203.7910    0.1340   47.6810 C.ar      1 UNH        -0.0681
     44 C44       203.5680    0.0930   46.3060 C.ar      1 UNH        -0.0684
     45 C45       203.4850   -1.1320   45.6450 C.ar      1 UNH        -0.0681
     46 C46       203.6290   -2.3100   46.3650 C.ar      1 UNH        -0.0557
     47 C47       205.5560   -3.7760   48.6090 C.2       1 UNH         0.2110
     48 O48       206.2090   -3.2690   49.5330 O.2       1 UNH        -0.3917
     49 N49       206.1020   -4.5290   47.6600 N.am      1 UNH        -0.2973
     50 H1        190.7050  -11.2625   50.7514 H         1 UNH         0.0614
     51 H2        189.9230  -12.0949   49.3648 H         1 UNH         0.0614
     52 H3        189.0159   -9.3058   49.6508 H         1 UNH         0.0321
     53 H4        186.8121  -10.4188   49.4947 H         1 UNH         0.0233
     54 H5        187.6092  -12.0157   49.6975 H         1 UNH         0.0233
     55 H6        187.9518  -11.0192   48.2428 H         1 UNH         0.0233
     56 H7        189.4634   -9.7430   52.0367 H         1 UNH         0.0233
     57 H8        188.4759  -11.2409   51.9485 H         1 UNH         0.0233
     58 H9        187.7010   -9.6386   51.7057 H         1 UNH         0.0233
     59 H10       192.1858   -9.0445   47.6732 H         1 UNH         0.1899
     60 H11       194.6619  -10.4590   48.2495 H         1 UNH         0.0802
     61 H12       194.1791   -7.6734   47.0922 H         1 UNH         0.0348
     62 H13       196.6243   -9.5026   47.0273 H         1 UNH         0.0270
     63 H14       196.4648   -7.9721   47.9541 H         1 UNH         0.0270
     64 H15       197.7471   -7.6846   45.8565 H         1 UNH         0.0265
     65 H16       196.2410   -6.7059   45.8798 H         1 UNH         0.0265
     66 H17       196.6879   -9.3780   44.4643 H         1 UNH         0.0265
     67 H18       196.4745   -7.7674   43.6980 H         1 UNH         0.0265
     68 H19       194.4083   -9.1961   43.6309 H         1 UNH         0.0265
     69 H20       194.1740   -7.6359   44.4896 H         1 UNH         0.0265
     70 H21       193.1236   -9.4363   45.7433 H         1 UNH         0.0270
     71 H22       194.6572  -10.3716   45.7417 H         1 UNH         0.0270
     72 H23       195.8488  -10.2253   50.0269 H         1 UNH         0.1883
     73 H24       195.1650   -8.2201   52.0220 H         1 UNH         0.0800
     74 H25       197.0049   -9.1876   53.3070 H         1 UNH         0.0315
     75 H26       197.5204  -10.1391   51.8733 H         1 UNH         0.0315
     76 H27       195.5771  -11.5372   52.0017 H         1 UNH         0.0298
     77 H28       195.8579  -12.4926   54.2649 H         1 UNH         0.0232
     78 H29       196.6981  -10.9940   54.7893 H         1 UNH         0.0232
     79 H30       197.4370  -12.0459   53.5346 H         1 UNH         0.0232
     80 H31       193.9451   -9.7932   52.5972 H         1 UNH         0.0232
     81 H32       194.6467   -9.7003   54.2482 H         1 UNH         0.0232
     82 H33       193.8329  -11.2055   53.7015 H         1 UNH         0.0232
     83 H34       195.8513   -6.2092   51.9844 H         1 UNH         0.1857
     84 H35       198.3252   -5.5937   50.4832 H         1 UNH         0.0607
     85 H36       197.1740   -3.1951   50.5388 H         1 UNH         0.0290
     86 H37       195.7082   -4.2278   50.6465 H         1 UNH         0.0290
     87 H38       197.3964   -5.3534   48.6285 H         1 UNH         0.0263
     88 H39       197.3095   -3.5828   48.3384 H         1 UNH         0.0263
     89 H40       195.4721   -4.7654   47.2327 H         1 UNH         0.0230
     90 H41       194.8708   -3.6720   48.5247 H         1 UNH         0.0230
     91 H42       194.9577   -5.4425   48.8149 H         1 UNH         0.0230
     92 H43       197.9994   -6.3218   53.4708 H         1 UNH         0.2134
     93 H44       197.6583   -4.0751   52.9844 H         1 UNH         0.0861
     94 H45       200.7206   -5.5080   52.2120 H         1 UNH         0.1881
     95 H46       202.7370   -4.3242   52.2183 H         1 UNH         0.0763
     96 H47       201.8353   -2.8141   51.8533 H         1 UNH         0.0763
     97 H48       204.0552   -3.1033   50.5747 H         1 UNH         0.1909
     98 H49       203.5808   -4.3909   47.9523 H         1 UNH         0.0960
     99 H50       204.1023   -1.0117   49.4568 H         1 UNH         0.0562
    100 H51       203.8544    1.0866   48.1943 H         1 UNH         0.0600
    101 H52       203.4587    1.0163   45.7486 H         1 UNH         0.0561
    102 H53       203.3092   -1.1642   44.5758 H         1 UNH         0.0600
    103 H54       203.5655   -3.2634   45.8532 H         1 UNH         0.0562
    104 H55       207.0856   -4.7091   47.6687 H         1 UNH         0.1816
    105 H56       205.5293   -4.9156   46.9371 H         1 UNH         0.1816
@<TRIPOS>BOND
     1    1    2 2  
     2    1    3 1  
     3    8    1 am 
     4    3    4 1  
     5    4    5 1  
     6    5    6 1  
     7    5    7 1  
     8    9    8 1  
     9    9   10 1  
    10   16    9 1  
    11   10   11 1  
    12   10   15 1  
    13   11   12 1  
    14   12   13 1  
    15   14   13 1  
    16   15   14 1  
    17   16   17 2  
    18   18   16 am 
    19   19   18 1  
    20   19   20 1  
    21   24   19 1  
    22   20   21 1  
    23   21   22 1  
    24   21   23 1  
    25   24   25 2  
    26   26   24 am 
    27   27   26 1  
    28   27   28 1  
    29   32   27 1  
    30   28   29 1  
    31   29   30 1  
    32   32   31 1  
    33   38   32 1  
    34   38   33 2  
    35   34   35 1  
    36   34   38 am 
    37   35   36 1  
    38   36   37 2  
    39   36   39 am 
    40   39   40 1  
    41   40   41 1  
    42   40   47 1  
    43   41   42 ar 
    44   41   46 ar 
    45   42   43 ar 
    46   43   44 ar 
    47   44   45 ar 
    48   45   46 ar 
    49   47   48 2  
    50   47   49 am 
    51    4   50 1  
    52    4   51 1  
    53    5   52 1  
    54    6   53 1  
    55    6   54 1  
    56    6   55 1  
    57    7   56 1  
    58    7   57 1  
    59    7   58 1  
    60    8   59 1  
    61    9   60 1  
    62   10   61 1  
    63   11   62 1  
    64   11   63 1  
    65   12   64 1  
    66   12   65 1  
    67   13   66 1  
    68   13   67 1  
    69   14   68 1  
    70   14   69 1  
    71   15   70 1  
    72   15   71 1  
    73   18   72 1  
    74   19   73 1  
    75   20   74 1  
    76   20   75 1  
    77   21   76 1  
    78   22   77 1  
    79   22   78 1  
    80   22   79 1  
    81   23   80 1  
    82   23   81 1  
    83   23   82 1  
    84   26   83 1  
    85   27   84 1  
    86   28   85 1  
    87   28   86 1  
    88   29   87 1  
    89   29   88 1  
    90   30   89 1  
    91   30   90 1  
    92   30   91 1  
    93   31   92 1  
    94   32   93 1  
    95   34   94 1  
    96   35   95 1  
    97   35   96 1  
    98   39   97 1  
    99   40   98 1  
   100   42   99 1  
   101   43  100 1  
   102   44  101 1  
   103   45  102 1  
   104   46  103 1  
   105   49  104 1  
   106   49  105 1  
@<TRIPOS>SUBSTRUCTURE
     1 UNH         1

