### 
### Created by X-TOOL on Mon Sep 10 21:12:53 2018
### 

@<TRIPOS>MOLECULE
2a4l_ligand
   52    54     1     0     0
SMALL
GAST_HUCK


@<TRIPOS>ATOM
      1 OAP        96.9410   98.3980   81.7010 O.3       1 RRC        -0.3927
      2 CAQ        97.8200   99.3160   82.3990 C.3       1 RRC         0.0673
      3 CAR        99.3030   99.0600   82.1250 C.3       1 RRC         0.0634
      4 CAK        99.5800   97.5390   82.1130 C.3       1 RRC        -0.0304
      5 CAI       100.8690   97.0700   82.8130 C.3       1 RRC        -0.0631
      6 NAS        99.6890   99.6750   80.7710 N.pl3     1 RRC        -0.2923
      7 CAT       100.6050  100.5790   80.3970 C.ar      1 RRC         0.1544
      8 NAU       101.5800  100.7310   81.2850 N.ar      1 RRC        -0.2645
      9 CAV       102.5660  101.6080   81.0000 C.ar      1 RRC         0.1424
     10 NAW       103.6710  101.8700   81.7690 N.pl3     1 RRC        -0.2248
     11 CAZ       103.9420  101.2080   83.0530 C.3       1 RRC         0.0648
     12 CAY       104.1430   99.6920   82.8200 C.3       1 RRC        -0.0349
     13 CBA       102.7500  101.4540   84.0120 C.3       1 RRC        -0.0349
     14 CAX       104.3850  102.7950   81.0530 C.2       1 RRC         0.1048
     15 CAN       102.6270  102.3520   79.8510 C.ar      1 RRC         0.0919
     16 NAO       103.7980  103.0970   79.9180 N.2       1 RRC        -0.3043
     17 NAL       100.6130  101.2930   79.2400 N.ar      1 RRC        -0.2560
     18 CAM       101.5820  102.1980   78.8950 C.ar      1 RRC         0.1222
     19 NAJ       101.4790  102.7930   77.7210 N.pl3     1 RRC        -0.2919
     20 CAD       100.2390  102.4850   76.9830 C.3       1 RRC         0.0632
     21 CAE        99.6080  103.8320   76.5810 C.ar      1 RRC        -0.0206
     22 CAG       100.4390  104.8910   76.2360 C.ar      1 RRC        -0.0584
     23 CAH        99.8830  106.1120   75.8700 C.ar      1 RRC        -0.0685
     24 CAF        98.4980  106.2290   75.8640 C.ar      1 RRC        -0.0687
     25 CAC        97.6480  105.1730   76.1880 C.ar      1 RRC        -0.0685
     26 CAB        98.2240  103.9610   76.5500 C.ar      1 RRC        -0.0584
     27 H1         96.0378   98.6058   81.9096 H         1 RRC         0.2095
     28 H2         97.6423   99.2158   83.4799 H         1 RRC         0.0580
     29 H3         97.5781  100.3409   82.0811 H         1 RRC         0.0580
     30 H4         99.9034   99.5288   82.9186 H         1 RRC         0.0581
     31 H5         99.6342   97.2174   81.0625 H         1 RRC         0.0286
     32 H6         98.7320   97.0409   82.6057 H         1 RRC         0.0286
     33 H7        100.9509   95.9758   82.7357 H         1 RRC         0.0231
     34 H8        100.8373   97.3613   83.8732 H         1 RRC         0.0231
     35 H9        101.7396   97.5378   82.3300 H         1 RRC         0.0231
     36 H10        99.1257   99.3176   79.9862 H         1 RRC         0.1849
     37 H11       104.8564  101.6295   83.4960 H         1 RRC         0.0642
     38 H12       104.3458   99.1970   83.7812 H         1 RRC         0.0259
     39 H13       104.9934   99.5351   82.1402 H         1 RRC         0.0259
     40 H14       103.2327   99.2658   82.3730 H         1 RRC         0.0259
     41 H15       102.9467  100.9608   84.9754 H         1 RRC         0.0259
     42 H16       101.8318  101.0407   83.5692 H         1 RRC         0.0259
     43 H17       102.6254  102.5351   84.1723 H         1 RRC         0.0259
     44 H18       105.3271  103.2281   81.3858 H         1 RRC         0.1309
     45 H19       102.2058  103.4216   77.3501 H         1 RRC         0.1883
     46 H20        99.5472  101.9206   77.6255 H         1 RRC         0.0689
     47 H21       100.4708  101.8935   76.0850 H         1 RRC         0.0689
     48 H22       101.5156  104.7659   76.2521 H         1 RRC         0.0557
     49 H23       100.5132  106.9505   75.5966 H         1 RRC         0.0599
     50 H24        98.0597  107.1834   75.5956 H         1 RRC         0.0559
     51 H25        96.5711  105.2932   76.1586 H         1 RRC         0.0599
     52 H26        97.5947  103.1169   76.8080 H         1 RRC         0.0557
@<TRIPOS>BOND
     1    1    2 1  
     2    2    3 1  
     3    3    4 1  
     4    3    6 1  
     5    4    5 1  
     6    6    7 1  
     7    7    8 ar 
     8    7   17 ar 
     9    8    9 ar 
    10    9   10 1  
    11    9   15 ar 
    12   10   11 1  
    13   10   14 1  
    14   11   12 1  
    15   11   13 1  
    16   14   16 2  
    17   15   16 1  
    18   15   18 ar 
    19   17   18 ar 
    20   18   19 1  
    21   19   20 1  
    22   20   21 1  
    23   21   22 ar 
    24   21   26 ar 
    25   22   23 ar 
    26   23   24 ar 
    27   24   25 ar 
    28   25   26 ar 
    29    1   27 1  
    30    2   28 1  
    31    2   29 1  
    32    3   30 1  
    33    4   31 1  
    34    4   32 1  
    35    5   33 1  
    36    5   34 1  
    37    5   35 1  
    38    6   36 1  
    39   11   37 1  
    40   12   38 1  
    41   12   39 1  
    42   12   40 1  
    43   13   41 1  
    44   13   42 1  
    45   13   43 1  
    46   14   44 1  
    47   19   45 1  
    48   20   46 1  
    49   20   47 1  
    50   22   48 1  
    51   23   49 1  
    52   24   50 1  
    53   25   51 1  
    54   26   52 1  
@<TRIPOS>SUBSTRUCTURE
     1 RRC         1

