### 
### Created by X-TOOL on Mon Sep 10 21:12:54 2018
### 

@<TRIPOS>MOLECULE
2a4q_ligand
  110   113     1     0     0
SMALL
GAST_HUCK


@<TRIPOS>ATOM
      1 C1        192.9860  -10.8280   49.0130 C.2       1 FNH         0.1782
      2 O2        193.7240  -11.4620   49.7830 O.2       1 FNH        -0.3969
      3 C3        191.5090  -11.2000   48.8630 C.3       1 FNH         0.0374
      4 C4        190.5580  -10.0970   49.2930 C.3       1 FNH        -0.0361
      5 C5        189.7820  -10.5070   50.5340 C.3       1 FNH        -0.0510
      6 C6        190.7190  -10.8790   51.6820 C.3       1 FNH        -0.0528
      7 C7        190.0190  -10.8260   53.0470 C.3       1 FNH        -0.0513
      8 C8        191.0220  -10.9990   54.1960 C.3       1 FNH        -0.0434
      9 C9        192.2070  -10.0870   53.9580 C.3       1 FNH        -0.0207
     10 N10       193.4090   -9.7890   48.2940 N.am      1 FNH        -0.2653
     11 C11       194.8010   -9.3410   48.3130 C.3       1 FNH         0.1337
     12 C12       195.1160   -8.4430   47.0790 C.3       1 FNH        -0.0006
     13 C13       196.6030   -8.0670   47.0370 C.3       1 FNH        -0.0460
     14 C17       194.7680   -9.1630   45.7660 C.3       1 FNH        -0.0460
     15 C14       196.9810   -7.2480   45.8060 C.3       1 FNH        -0.0526
     16 C16       195.1120   -8.3570   44.5160 C.3       1 FNH        -0.0526
     17 C15       196.5920   -7.9790   44.5160 C.3       1 FNH        -0.0530
     18 C18       195.1730   -8.5600   49.5680 C.2       1 FNH         0.2043
     19 O19       194.7560   -7.4090   49.7270 O.2       1 FNH        -0.3944
     20 N20       195.9490   -9.1750   50.4580 N.am      1 FNH        -0.2619
     21 C21       196.3830   -8.4810   51.6700 C.3       1 FNH         0.1402
     22 C22       196.9300   -9.4680   52.7150 C.3       1 FNH         0.0198
     23 C23       195.8820  -10.3760   53.2880 C.ar      1 FNH        -0.0453
     24 C24       194.5900   -9.9270   53.4550 C.ar      1 FNH        -0.0590
     25 C28       196.1560  -11.7150   53.5530 C.ar      1 FNH        -0.0670
     26 C27       195.1340  -12.5810   53.9630 C.ar      1 FNH        -0.0752
     27 C26       193.8280  -12.0980   54.1050 C.ar      1 FNH        -0.0673
     28 C25       193.5710  -10.7580   53.8560 C.ar      1 FNH        -0.0498
     29 C29       197.4550   -7.4790   51.2490 C.2       1 FNH         0.2042
     30 O30       198.5180   -7.8590   50.7480 O.2       1 FNH        -0.3943
     31 N31       197.1500   -6.1960   51.4110 N.am      1 FNH        -0.2771
     32 C32       198.0850   -5.1400   51.0290 C.3       1 FNH         0.0850
     33 C33       197.4300   -4.1650   50.0330 C.3       1 FNH        -0.0255
     34 C34       196.2500   -4.7390   49.2410 C.3       1 FNH        -0.0536
     35 C35       196.2400   -4.3280   47.7790 C.3       1 FNH        -0.0652
     36 O36       199.6330   -5.4240   52.9160 O.3       1 FNH        -0.3691
     37 C37       198.8470   -4.4360   52.2250 C.3       1 FNH         0.1663
     38 O38       199.5520   -2.5090   51.0500 O.2       1 FNH        -0.3940
     39 N39       201.2350   -3.8430   51.6840 N.am      1 FNH        -0.2661
     40 C40       201.9030   -4.7740   50.7850 C.3       1 FNH         0.1202
     41 C41       202.7950   -4.1820   49.7130 C.2       1 FNH         0.2019
     42 O42       202.4930   -4.2970   48.5260 O.2       1 FNH        -0.3946
     43 C43       199.9440   -3.5270   51.6050 C.2       1 FNH         0.2093
     44 N44       203.8820   -3.5380   50.1400 N.am      1 FNH        -0.2589
     45 C45       204.8790   -2.9110   49.2620 C.3       1 FNH         0.1278
     46 C46       204.4660   -2.1550   47.9310 C.ar      1 FNH        -0.0049
     47 C47       204.2650   -2.6600   46.6090 C.ar      1 FNH        -0.0564
     48 C51       204.3310   -0.7520   48.0750 C.ar      1 FNH        -0.0564
     49 C48       203.9560   -1.8410   45.5110 C.ar      1 FNH        -0.0682
     50 C50       204.0240    0.0860   46.9960 C.ar      1 FNH        -0.0682
     51 C49       203.8380   -0.4640   45.7140 C.ar      1 FNH        -0.0685
     52 C52       206.0760   -3.8210   48.9680 C.2       1 FNH         0.0723
     53 O53       205.9150   -4.9370   48.4530 O.co2     1 FNH        -0.5642
     54 O54       207.2210   -3.4490   49.2560 O.co2     1 FNH        -0.5642
     55 H1        191.3102  -12.0900   49.4781 H         1 FNH         0.0502
     56 H2        191.3149  -11.4341   47.8059 H         1 FNH         0.0502
     57 H3        189.8501   -9.8924   48.4763 H         1 FNH         0.0290
     58 H4        191.1364   -9.1877   49.5134 H         1 FNH         0.0290
     59 H5        189.1519  -11.3753   50.2911 H         1 FNH         0.0267
     60 H6        189.1444   -9.6683   50.8504 H         1 FNH         0.0267
     61 H7        191.5643  -10.1752   51.6907 H         1 FNH         0.0265
     62 H8        191.0934  -11.8999   51.5161 H         1 FNH         0.0265
     63 H9        189.2728  -11.6326   53.0985 H         1 FNH         0.0267
     64 H10       189.5159   -9.8537   53.1541 H         1 FNH         0.0267
     65 H11       191.3629  -12.0442   54.2337 H         1 FNH         0.0287
     66 H12       190.5399  -10.7359   55.1491 H         1 FNH         0.0287
     67 H13       192.2490   -9.3693   54.7905 H         1 FNH         0.0425
     68 H14       192.0291   -9.5466   53.0166 H         1 FNH         0.0425
     69 H15       192.7519   -9.2986   47.7216 H         1 FNH         0.1883
     70 H16       195.4374  -10.2370   48.2669 H         1 FNH         0.0803
     71 H17       194.5154   -7.5245   47.1544 H         1 FNH         0.0348
     72 H18       197.1978   -8.9923   47.0375 H         1 FNH         0.0270
     73 H19       196.8403   -7.4780   47.9352 H         1 FNH         0.0270
     74 H20       193.6878   -9.3707   45.7592 H         1 FNH         0.0270
     75 H21       195.3240  -10.1115   45.7318 H         1 FNH         0.0270
     76 H22       198.0676   -7.0768   45.8082 H         1 FNH         0.0265
     77 H23       196.4574   -6.2813   45.8429 H         1 FNH         0.0265
     78 H24       194.5040   -7.4405   44.4971 H         1 FNH         0.0265
     79 H25       194.8924   -8.9612   43.6234 H         1 FNH         0.0265
     80 H26       197.1954   -8.8944   44.4271 H         1 FNH         0.0265
     81 H27       196.7938   -7.3220   43.6572 H         1 FNH         0.0265
     82 H28       196.2374  -10.1188   50.2965 H         1 FNH         0.1885
     83 H29       195.5298   -7.9427   52.1085 H         1 FNH         0.0823
     84 H30       197.3781   -8.8912   53.5375 H         1 FNH         0.0473
     85 H31       197.7036  -10.0873   52.2374 H         1 FNH         0.0473
     86 H32       194.3697   -8.8830   53.2637 H         1 FNH         0.0494
     87 H33       197.1669  -12.0900   53.4413 H         1 FNH         0.0499
     88 H34       195.3540  -13.6221   54.1697 H         1 FNH         0.0582
     89 H35       193.0269  -12.7634   54.4060 H         1 FNH         0.0499
     90 H36       196.2635   -5.9483   51.8019 H         1 FNH         0.1857
     91 H37       198.8772   -5.6494   50.4607 H         1 FNH         0.0607
     92 H38       198.1987   -3.8444   49.3145 H         1 FNH         0.0290
     93 H39       197.0691   -3.2926   50.5975 H         1 FNH         0.0290
     94 H40       195.3164   -4.3900   49.7064 H         1 FNH         0.0263
     95 H41       196.2977   -5.8367   49.2930 H         1 FNH         0.0263
     96 H42       195.3689   -4.7757   47.2782 H         1 FNH         0.0230
     97 H43       197.1625   -4.6787   47.2932 H         1 FNH         0.0230
     98 H44       196.1813   -3.2320   47.7066 H         1 FNH         0.0230
     99 H45       199.0607   -6.1036   53.2525 H         1 FNH         0.2134
    100 H46       198.1575   -3.8940   52.8889 H         1 FNH         0.0861
    101 H47       201.7796   -3.4147   52.4051 H         1 FNH         0.1881
    102 H48       201.1235   -5.3624   50.2790 H         1 FNH         0.0763
    103 H49       202.5240   -5.4410   51.4010 H         1 FNH         0.0763
    104 H50       204.0287   -3.4777   51.1273 H         1 FNH         0.1901
    105 H51       205.2812   -2.1062   49.8948 H         1 FNH         0.0887
    106 H52       204.3556   -3.7278   46.4460 H         1 FNH         0.0560
    107 H53       204.4704   -0.3115   49.0556 H         1 FNH         0.0560
    108 H54       203.8119   -2.2688   44.5255 H         1 FNH         0.0600
    109 H55       203.9299    1.1552   47.1477 H         1 FNH         0.0600
    110 H56       203.6016    0.1852   44.8787 H         1 FNH         0.0560
@<TRIPOS>BOND
     1    1    2 2  
     2    1    3 1  
     3   10    1 am 
     4    3    4 1  
     5    4    5 1  
     6    6    5 1  
     7    7    6 1  
     8    8    7 1  
     9    9    8 1  
    10   28    9 1  
    11   11   10 1  
    12   11   12 1  
    13   18   11 1  
    14   12   13 1  
    15   12   14 1  
    16   13   15 1  
    17   14   16 1  
    18   15   17 1  
    19   16   17 1  
    20   18   19 2  
    21   20   18 am 
    22   21   20 1  
    23   21   22 1  
    24   29   21 1  
    25   22   23 1  
    26   23   24 ar 
    27   23   25 ar 
    28   24   28 ar 
    29   25   26 ar 
    30   26   27 ar 
    31   28   27 ar 
    32   29   30 2  
    33   31   29 am 
    34   32   31 1  
    35   32   33 1  
    36   37   32 1  
    37   33   34 1  
    38   34   35 1  
    39   37   36 1  
    40   43   37 1  
    41   43   38 2  
    42   39   40 1  
    43   39   43 am 
    44   40   41 1  
    45   41   42 2  
    46   41   44 am 
    47   44   45 1  
    48   45   46 1  
    49   45   52 1  
    50   46   47 ar 
    51   46   48 ar 
    52   47   49 ar 
    53   48   50 ar 
    54   49   51 ar 
    55   50   51 ar 
    56   52   53 ar 
    57   52   54 ar 
    58    3   55 1  
    59    3   56 1  
    60    4   57 1  
    61    4   58 1  
    62    5   59 1  
    63    5   60 1  
    64    6   61 1  
    65    6   62 1  
    66    7   63 1  
    67    7   64 1  
    68    8   65 1  
    69    8   66 1  
    70    9   67 1  
    71    9   68 1  
    72   10   69 1  
    73   11   70 1  
    74   12   71 1  
    75   13   72 1  
    76   13   73 1  
    77   14   74 1  
    78   14   75 1  
    79   15   76 1  
    80   15   77 1  
    81   16   78 1  
    82   16   79 1  
    83   17   80 1  
    84   17   81 1  
    85   20   82 1  
    86   21   83 1  
    87   22   84 1  
    88   22   85 1  
    89   24   86 1  
    90   25   87 1  
    91   26   88 1  
    92   27   89 1  
    93   31   90 1  
    94   32   91 1  
    95   33   92 1  
    96   33   93 1  
    97   34   94 1  
    98   34   95 1  
    99   35   96 1  
   100   35   97 1  
   101   35   98 1  
   102   36   99 1  
   103   37  100 1  
   104   39  101 1  
   105   40  102 1  
   106   40  103 1  
   107   44  104 1  
   108   45  105 1  
   109   47  106 1  
   110   48  107 1  
   111   49  108 1  
   112   50  109 1  
   113   51  110 1  
@<TRIPOS>SUBSTRUCTURE
     1 FNH         1

