### 
### Created by X-TOOL on Mon Sep 10 21:12:54 2018
### 

@<TRIPOS>MOLECULE
2a4r_ligand
  102   105     1     0     0
SMALL
GAST_HUCK


@<TRIPOS>ATOM
      1 C1        191.1800  -10.6150   48.8780 C.2       1 BNH         0.3218
      2 O2        191.7780  -11.4990   49.5040 O.2       1 BNH        -0.3774
      3 O3        189.9130  -10.5240   48.9240 O.3       1 BNH        -0.2636
      4 C4        189.0440  -11.3980   49.6700 C.3       1 BNH         0.0796
      5 C5        187.9290  -10.8220   50.5490 C.3       1 BNH        -0.0189
      6 C6        188.2740  -10.9430   52.0270 C.3       1 BNH        -0.0603
      7 C7        187.6520   -9.3870   50.1940 C.3       1 BNH        -0.0603
      8 N8        191.8070   -9.7090   48.1290 N.am      1 BNH        -0.2409
      9 C9        193.2600   -9.5430   48.1500 C.3       1 BNH         0.1356
     10 C10       193.7410   -8.7540   46.9380 C.3       1 BNH        -0.0006
     11 C11       195.2600   -8.5800   46.9690 C.3       1 BNH        -0.0460
     12 C12       193.3560   -9.4530   45.6390 C.3       1 BNH        -0.0460
     13 C13       195.7980   -7.8450   45.7550 C.3       1 BNH        -0.0526
     14 C14       193.8530   -8.7160   44.4110 C.3       1 BNH        -0.0526
     15 C15       195.3700   -8.5420   44.4680 C.3       1 BNH        -0.0530
     16 C16       193.7160   -8.7810   49.3820 C.2       1 BNH         0.2041
     17 O17       193.2930   -7.6440   49.5990 O.2       1 BNH        -0.3944
     18 N18       194.5990   -9.3990   50.1580 N.am      1 BNH        -0.2637
     19 C19       195.1270   -8.7780   51.3690 C.3       1 BNH         0.1311
     20 C20       196.1830   -7.7450   51.0020 C.2       1 BNH         0.2021
     21 O21       197.1620   -8.0600   50.3170 O.2       1 BNH        -0.3945
     22 C22       195.7430   -9.8290   52.2870 C.3       1 BNH        -0.0096
     23 C23       194.6820  -10.8400   52.6830 C.3       1 BNH        -0.0368
     24 C24       193.5660  -10.3740   53.6150 C.3       1 BNH        -0.0497
     25 C25       194.6770  -11.3080   54.1340 C.3       1 BNH        -0.0497
     26 N26       195.9770   -6.5110   51.4540 N.am      1 BNH        -0.2772
     27 C27       196.9070   -5.4190   51.1700 C.3       1 BNH         0.0853
     28 C28       196.1980   -4.3240   50.3540 C.3       1 BNH        -0.0224
     29 C29       195.9260   -4.7740   48.8890 C.3       1 BNH        -0.0387
     30 C30       195.1560   -3.8690   47.9210 C.3       1 BNH        -0.0499
     31 C31       194.4930   -5.1470   48.4640 C.3       1 BNH        -0.0499
     32 O32       198.0060   -5.8700   53.2870 O.3       1 BNH        -0.3691
     33 C33       197.5670   -4.8280   52.4310 C.3       1 BNH         0.1663
     34 O34       198.6990   -2.9110   51.5300 O.2       1 BNH        -0.3940
     35 C35       199.9360   -4.7280   51.9770 N.am      1 BNH        -0.2661
     36 N36       201.2120   -4.1190   51.6670 C.3       1 BNH         0.1202
     37 C37       201.5520   -4.0790   50.1970 C.2       1 BNH         0.2019
     38 C38       200.7180   -4.3280   49.3220 O.2       1 BNH        -0.3946
     39 O39       198.7860   -4.0700   51.9370 C.2       1 BNH         0.2093
     40 N40       202.8030   -3.7200   49.9390 N.am      1 BNH        -0.2589
     41 C41       203.3580   -3.6350   48.5990 C.3       1 BNH         0.1278
     42 C42       203.0040   -2.4400   47.7450 C.ar      1 BNH        -0.0049
     43 C43       203.0240   -1.1470   48.2860 C.ar      1 BNH        -0.0564
     44 C44       202.7010   -2.6440   46.4010 C.ar      1 BNH        -0.0564
     45 C45       202.7470   -0.0660   47.5050 C.ar      1 BNH        -0.0682
     46 C46       202.4220   -1.5460   45.6150 C.ar      1 BNH        -0.0682
     47 C47       202.4470   -0.2640   46.1600 C.ar      1 BNH        -0.0685
     48 C48       204.8800   -3.6940   48.7580 C.2       1 BNH         0.0723
     49 O49       205.4190   -3.3480   49.8220 O.co2     1 BNH        -0.5642
     50 O50       205.5960   -4.0890   47.8330 O.co2     1 BNH        -0.5642
     51 H1        189.6895  -11.9949   50.3310 H         1 BNH         0.0614
     52 H2        188.5578  -12.0591   48.9375 H         1 BNH         0.0614
     53 H3        187.0145  -11.4041   50.3625 H         1 BNH         0.0321
     54 H4        187.4561  -10.5219   52.6301 H         1 BNH         0.0233
     55 H5        189.2031  -10.3913   52.2330 H         1 BNH         0.0233
     56 H6        188.4120  -12.0032   52.2858 H         1 BNH         0.0233
     57 H7        187.4045   -9.3151   49.1246 H         1 BNH         0.0233
     58 H8        188.5434   -8.7782   50.4058 H         1 BNH         0.0233
     59 H9        186.8055   -9.0182   50.7918 H         1 BNH         0.0233
     60 H10       191.2639   -9.1205   47.5301 H         1 BNH         0.1899
     61 H11       193.7252  -10.5398   48.1454 H         1 BNH         0.0802
     62 H12       193.2684   -7.7610   46.9603 H         1 BNH         0.0348
     63 H13       195.7260   -9.5755   47.0109 H         1 BNH         0.0270
     64 H14       195.5292   -8.0108   47.8710 H         1 BNH         0.0270
     65 H15       192.2594   -9.5229   45.5881 H         1 BNH         0.0270
     66 H16       193.7882  -10.4645   45.6417 H         1 BNH         0.0270
     67 H17       196.8966   -7.8219   45.8047 H         1 BNH         0.0265
     68 H18       195.4092   -6.8160   45.7545 H         1 BNH         0.0265
     69 H19       193.3766   -7.7255   44.3659 H         1 BNH         0.0265
     70 H20       193.5883   -9.2915   43.5117 H         1 BNH         0.0265
     71 H21       195.8466   -9.5323   44.4209 H         1 BNH         0.0265
     72 H22       195.6942   -7.9377   43.6079 H         1 BNH         0.0265
     73 H23       194.9108  -10.3151   49.9058 H         1 BNH         0.1883
     74 H24       194.3037   -8.2781   51.9003 H         1 BNH         0.0800
     75 H25       196.1390   -9.3406   53.1896 H         1 BNH         0.0315
     76 H26       196.5602  -10.3428   51.7596 H         1 BNH         0.0315
     77 H27       194.4762  -11.5380   51.8581 H         1 BNH         0.0303
     78 H28       192.5426  -10.7551   53.4830 H         1 BNH         0.0268
     79 H29       193.5271   -9.3261   53.9473 H         1 BNH         0.0268
     80 H30       195.4319  -10.9278   54.8379 H         1 BNH         0.0268
     81 H31       194.4475  -12.3567   54.3736 H         1 BNH         0.0268
     82 H32       195.1627   -6.3248   52.0038 H         1 BNH         0.1857
     83 H33       197.7142   -5.8318   50.5471 H         1 BNH         0.0607
     84 H34       196.8328   -3.4258   50.3377 H         1 BNH         0.0292
     85 H35       195.2385   -4.0863   50.8366 H         1 BNH         0.0292
     86 H36       196.7808   -5.3616   48.5229 H         1 BNH         0.0302
     87 H37       195.4569   -3.8126   46.8645 H         1 BNH         0.0268
     88 H38       194.8025   -2.8823   48.2548 H         1 BNH         0.0268
     89 H39       193.6674   -5.0746   49.1873 H         1 BNH         0.0268
     90 H40       194.3219   -6.0048   47.7970 H         1 BNH         0.0268
     91 H41       197.2619   -6.4014   53.5445 H         1 BNH         0.2134
     92 H42       196.8714   -4.1625   52.9632 H         1 BNH         0.0861
     93 H43       199.9213   -5.6942   52.2344 H         1 BNH         0.1881
     94 H44       201.9980   -4.6881   52.1849 H         1 BNH         0.0763
     95 H45       201.1989   -3.0856   52.0437 H         1 BNH         0.0763
     96 H46       203.3977   -3.4951   50.7108 H         1 BNH         0.1901
     97 H47       203.0184   -4.5261   48.0508 H         1 BNH         0.0887
     98 H48       203.2618   -1.0063   49.3342 H         1 BNH         0.0560
     99 H49       202.6849   -3.6437   45.9822 H         1 BNH         0.0560
    100 H50       202.7599    0.9335   47.9244 H         1 BNH         0.0600
    101 H51       202.1817   -1.6811   44.5666 H         1 BNH         0.0600
    102 H52       202.2301    0.5901   45.5288 H         1 BNH         0.0560
@<TRIPOS>BOND
     1    1    2 2  
     2    1    3 1  
     3    8    1 am 
     4    3    4 1  
     5    4    5 1  
     6    5    6 1  
     7    5    7 1  
     8    9    8 1  
     9    9   10 1  
    10   16    9 1  
    11   10   11 1  
    12   10   12 1  
    13   11   13 1  
    14   12   14 1  
    15   13   15 1  
    16   14   15 1  
    17   16   17 2  
    18   18   16 am 
    19   19   18 1  
    20   20   19 1  
    21   19   22 1  
    22   20   21 2  
    23   26   20 am 
    24   22   23 1  
    25   23   24 1  
    26   23   25 1  
    27   25   24 1  
    28   27   26 1  
    29   27   28 1  
    30   33   27 1  
    31   28   29 1  
    32   29   30 1  
    33   29   31 1  
    34   31   30 1  
    35   33   32 1  
    36   39   33 1  
    37   35   36 1  
    38   35   39 am 
    39   36   37 1  
    40   37   38 2  
    41   37   40 am 
    42   40   41 1  
    43   41   42 1  
    44   41   48 1  
    45   42   43 ar 
    46   42   44 ar 
    47   43   45 ar 
    48   44   46 ar 
    49   45   47 ar 
    50   46   47 ar 
    51   48   49 ar 
    52   48   50 ar 
    53   39   34 2  
    54    4   51 1  
    55    4   52 1  
    56    5   53 1  
    57    6   54 1  
    58    6   55 1  
    59    6   56 1  
    60    7   57 1  
    61    7   58 1  
    62    7   59 1  
    63    8   60 1  
    64    9   61 1  
    65   10   62 1  
    66   11   63 1  
    67   11   64 1  
    68   12   65 1  
    69   12   66 1  
    70   13   67 1  
    71   13   68 1  
    72   14   69 1  
    73   14   70 1  
    74   15   71 1  
    75   15   72 1  
    76   18   73 1  
    77   19   74 1  
    78   22   75 1  
    79   22   76 1  
    80   23   77 1  
    81   24   78 1  
    82   24   79 1  
    83   25   80 1  
    84   25   81 1  
    85   26   82 1  
    86   27   83 1  
    87   28   84 1  
    88   28   85 1  
    89   29   86 1  
    90   30   87 1  
    91   30   88 1  
    92   31   89 1  
    93   31   90 1  
    94   32   91 1  
    95   33   92 1  
    96   35   93 1  
    97   36   94 1  
    98   36   95 1  
    99   40   96 1  
   100   41   97 1  
   101   43   98 1  
   102   44   99 1  
   103   45  100 1  
   104   46  101 1  
   105   47  102 1  
@<TRIPOS>SUBSTRUCTURE
     1 BNH         1

