### 
### Created by X-TOOL on Mon Sep 10 21:12:53 2018
### 

@<TRIPOS>MOLECULE
2a4z_ligand
   24    26     1     0     0
SMALL
GAST_HUCK


@<TRIPOS>ATOM
      1 C1         40.1700   14.1920   32.5720 C.2       1 BYM         0.2426
      2 C3         41.0860   15.5690   34.2360 C.2       1 BYM         0.2815
      3 C8         45.6620   14.3820   29.9980 C.ar      1 BYM         0.1307
      4 C9         45.9180   13.3130   29.2450 C.ar      1 BYM         0.1319
      5 C11        44.3290   14.6080   30.5810 C.ar      1 BYM        -0.0345
      6 C13        44.8870   12.3050   28.9590 C.ar      1 BYM        -0.0386
      7 C14        47.8010   14.2970   29.6520 C.3       1 BYM         0.5280
      8 C15        43.3350   13.6840   30.3400 C.ar      1 BYM        -0.0456
      9 C16        43.6510   12.4830   29.4800 C.ar      1 BYM        -0.0737
     10 N2         39.9420   14.8700   33.7920 N.am      1 BYM        -0.1883
     11 S4         42.4680   15.3900   33.1510 S.3       1 BYM         0.0404
     12 C5         41.5320   14.3650   32.0450 C.2       1 BYM         0.1135
     13 O6         41.1010   16.2320   35.2720 O.2       1 BYM        -0.3707
     14 O7         39.2970   13.5250   32.0170 O.2       1 BYM        -0.3761
     15 O10        46.7600   15.1970   30.1360 O.3       1 BYM        -0.2296
     16 O12        47.2110   13.2780   28.8040 O.3       1 BYM        -0.2281
     17 F17        48.4290   13.7230   30.7450 F         1 BYM        -0.1401
     18 C18        41.9390   13.7970   30.8820 C.2       1 BYM        -0.0389
     19 F19        48.7360   14.9750   28.9060 F         1 BYM        -0.1401
     20 H1         44.1331   15.4844   31.1882 H         1 BYM         0.0503
     21 H2         45.1115   11.4400   28.3455 H         1 BYM         0.0519
     22 H3         42.8759   11.7528   29.2772 H         1 BYM         0.0506
     23 H4         39.0712   14.8561   34.2835 H         1 BYM         0.2254
     24 H5         41.1528   13.3682   30.2623 H         1 BYM         0.0574
@<TRIPOS>BOND
     1    1   10 am 
     2   12    1 1  
     3    1   14 2  
     4    2   10 am 
     5   11    2 1  
     6    2   13 2  
     7    3    4 ar 
     8    5    3 ar 
     9    3   15 1  
    10    6    4 ar 
    11    4   16 1  
    12    8    5 ar 
    13    9    6 ar 
    14   15    7 1  
    15   16    7 1  
    16    7   17 1  
    17    7   19 1  
    18    8    9 ar 
    19   18    8 1  
    20   12   11 1  
    21   12   18 2  
    22    5   20 1  
    23    6   21 1  
    24    9   22 1  
    25   10   23 1  
    26   18   24 1  
@<TRIPOS>SUBSTRUCTURE
     1 BYM         1

