### 
### Created by X-TOOL on Mon Sep 10 21:12:52 2018
### 

@<TRIPOS>MOLECULE
2a58_ligand
   48    50     1     0     0
SMALL
GAST_HUCK


@<TRIPOS>ATOM
      1 N1         76.1540   45.2280   42.4980 N.am      1 RBF        -0.1380
      2 C2         76.0470   44.0100   43.1670 C.2       1 RBF         0.3774
      3 O2         77.0560   43.3740   43.3100 O.2       1 RBF        -0.3507
      4 N3         74.7920   43.6730   43.5870 N.am      1 RBF        -0.1640
      5 C4         73.5830   44.3830   43.4390 C.2       1 RBF         0.2673
      6 O4         72.5370   43.9460   43.8720 O.2       1 RBF        -0.3695
      7 C4A        73.7540   45.7120   42.6950 C.ar      1 RBF         0.2249
      8 N5         72.6860   46.4790   42.4870 N.ar      1 RBF        -0.2266
      9 C5A        72.8540   47.7060   41.7940 C.ar      1 RBF         0.1140
     10 C6         71.6510   48.5030   41.5940 C.ar      1 RBF         0.0178
     11 C7         71.8400   49.7080   40.8990 C.ar      1 RBF         0.0225
     12 C7M        70.6900   50.6690   40.5960 C.3       1 RBF        -0.0058
     13 C8         73.1840   50.0970   40.4240 C.ar      1 RBF         0.0141
     14 C8M        73.3610   51.4400   39.6380 C.3       1 RBF        -0.0187
     15 C9         74.3410   49.3710   40.6030 C.ar      1 RBF         0.0082
     16 C9A        74.1400   48.1270   41.3190 C.ar      1 RBF         0.1020
     17 N10        75.2780   47.2440   41.5840 N.ar      1 RBF        -0.2734
     18 C10        75.0790   46.0690   42.2520 C.ar      1 RBF         0.2625
     19 C1         76.5600   47.7730   41.0680 C.3       1 RBF         0.0604
     20 C2         76.9170   47.0860   39.7380 C.3       1 RBF         0.1011
     21 O2         77.3580   45.7210   40.0100 O.3       1 RBF        -0.3875
     22 C3         78.1270   47.6410   39.1070 C.3       1 RBF         0.1105
     23 O3         79.2400   47.5820   40.0110 O.3       1 RBF        -0.3865
     24 C4         77.9720   49.0720   38.6530 C.3       1 RBF         0.1065
     25 O4         76.9170   49.4020   37.7450 O.3       1 RBF        -0.3869
     26 C5         79.3930   49.4260   38.0620 C.3       1 RBF         0.0726
     27 O5         80.1680   49.9960   39.1380 O.3       1 RBF        -0.3924
     28 H1         77.0576   45.5117   42.1770 H         1 RBF         0.3006
     29 H2         74.7204   42.7989   44.0675 H         1 RBF         0.2282
     30 H3         70.6790   48.1880   41.9561 H         1 RBF         0.0940
     31 H4         69.7534   50.2598   41.0027 H         1 RBF         0.0505
     32 H5         70.5934   50.7936   39.5074 H         1 RBF         0.0505
     33 H6         70.8957   51.6449   41.0600 H         1 RBF         0.0505
     34 H7         74.4186   51.5678   39.3641 H         1 RBF         0.0409
     35 H8         73.0423   52.2806   40.2719 H         1 RBF         0.0409
     36 H9         72.7465   51.4149   38.7260 H         1 RBF         0.0409
     37 H10        75.3094   49.6989   40.2427 H         1 RBF         0.0899
     38 H11        77.3556   47.5798   41.8026 H         1 RBF         0.0513
     39 H12        76.4672   48.8568   40.9045 H         1 RBF         0.0513
     40 H13        76.0546   47.1198   39.0561 H         1 RBF         0.0637
     41 H14        78.1217   45.7427   40.5746 H         1 RBF         0.2100
     42 H15        78.3549   47.0248   38.2247 H         1 RBF         0.0646
     43 H16        80.0099   47.9435   39.5877 H         1 RBF         0.2100
     44 H17        77.7975   49.6844   39.5500 H         1 RBF         0.0643
     45 H18        76.9459   50.3318   37.5522 H         1 RBF         0.2100
     46 H19        79.2910   50.1537   37.2434 H         1 RBF         0.0584
     47 H20        79.8826   48.5160   37.6849 H         1 RBF         0.0584
     48 H21        80.2450   49.3622   39.8416 H         1 RBF         0.2095
@<TRIPOS>BOND
     1    1    2 am 
     2    1   18 am 
     3    2    3 2  
     4    2    4 am 
     5    4    5 am 
     6    5    6 2  
     7    5    7 1  
     8    7    8 ar 
     9    7   18 ar 
    10    8    9 ar 
    11    9   10 ar 
    12    9   16 ar 
    13   10   11 ar 
    14   11   12 1  
    15   11   13 ar 
    16   13   14 1  
    17   13   15 ar 
    18   15   16 ar 
    19   16   17 ar 
    20   17   18 ar 
    21   17   19 1  
    22   19   20 1  
    23   20   21 1  
    24   20   22 1  
    25   22   23 1  
    26   22   24 1  
    27   24   25 1  
    28   24   26 1  
    29   26   27 1  
    30    1   28 1  
    31    4   29 1  
    32   10   30 1  
    33   12   31 1  
    34   12   32 1  
    35   12   33 1  
    36   14   34 1  
    37   14   35 1  
    38   14   36 1  
    39   15   37 1  
    40   19   38 1  
    41   19   39 1  
    42   20   40 1  
    43   21   41 1  
    44   22   42 1  
    45   23   43 1  
    46   24   44 1  
    47   25   45 1  
    48   26   46 1  
    49   26   47 1  
    50   27   48 1  
@<TRIPOS>SUBSTRUCTURE
     1 RBF         1

