### 
### Created by X-TOOL on Mon Sep 10 21:12:54 2018
### 

@<TRIPOS>MOLECULE
2a5b_ligand
   33    35     1     0     0
SMALL
GAST_HUCK


@<TRIPOS>ATOM
      1 O6         -0.3450   27.7960    0.0040 O.2       1 8HG        -0.4208
      2 C6          0.5210   28.3010   -0.7500 C.2       1 8HG         0.2169
      3 N1          1.3440   29.2150   -0.2300 N.am      1 8HG        -0.1896
      4 C2          2.2870   29.7720   -0.9910 C.2       1 8HG         0.2257
      5 N2          3.1170   30.6710   -0.5130 N.pl3     1 8HG        -0.2848
      6 N3          2.4710   29.4770   -2.2760 N.2       1 8HG        -0.2899
      7 C4          1.6670   28.5630   -2.8590 C.2       1 8HG         0.1142
      8 C5          0.6540   27.9370   -2.1040 C.2       1 8HG         0.1376
      9 N7          0.0080   27.0750   -2.9350 N.am      1 8HG        -0.2392
     10 C8          0.6350   27.2190   -4.1130 C.2       1 8HG         0.3009
     11 O20         0.2880   26.5660   -5.1640 O.2       1 8HG        -0.4065
     12 N9          1.6470   28.1050   -4.1100 N.am      1 8HG        -0.1800
     13 C1          2.5440   28.5020   -5.2430 C.3       1 8HG         0.1711
     14 O4          3.7330   29.2840   -4.9760 O.3       1 8HG        -0.3408
     15 C2          1.7440   29.3490   -6.2270 C.3       1 8HG         0.0297
     16 C3          2.7820   30.2110   -6.9160 C.3       1 8HG         0.0885
     17 O3          2.6750   29.8820   -8.3030 O.3       1 8HG        -0.3890
     18 C4          4.1000   29.7610   -6.2810 C.3       1 8HG         0.1108
     19 C5          5.1850   30.8180   -6.3070 C.3       1 8HG         0.0729
     20 O5          4.7560   31.9000   -7.1520 O.3       1 8HG        -0.3924
     21 H1          1.2533   29.4817    0.7295 H         1 8HG         0.2492
     22 H2          3.8358   31.0846   -1.1238 H         1 8HG         0.1875
     23 H3          3.0490   30.9623    0.4726 H         1 8HG         0.1875
     24 H4         -0.7592   26.4716   -2.7177 H         1 8HG         0.2143
     25 H5          2.8653   27.5704   -5.7317 H         1 8HG         0.0946
     26 H6          1.0105   29.9734   -5.6959 H         1 8HG         0.0343
     27 H7          1.2230   28.7106   -6.9557 H         1 8HG         0.0343
     28 H8          2.6154   31.2867   -6.7575 H         1 8HG         0.0622
     29 H9          1.7970   30.0792   -8.6073 H         1 8HG         0.2099
     30 H10         4.4879   28.9082   -6.8575 H         1 8HG         0.0646
     31 H11         6.1145   30.3844   -6.7045 H         1 8HG         0.0584
     32 H12         5.3615   31.1922   -5.2878 H         1 8HG         0.0584
     33 H13         4.6030   31.5727   -8.0306 H         1 8HG         0.2095
@<TRIPOS>BOND
     1    1    2 2  
     2    2    3 am 
     3    2    8 1  
     4    3    4 1  
     5    4    5 1  
     6    4    6 2  
     7    6    7 1  
     8    7    8 2  
     9    7   12 1  
    10    8    9 am 
    11    9   10 am 
    12   10   11 2  
    13   10   12 am 
    14   12   13 1  
    15   13   14 1  
    16   13   15 1  
    17   14   18 1  
    18   15   16 1  
    19   16   17 1  
    20   16   18 1  
    21   18   19 1  
    22   19   20 1  
    23    3   21 1  
    24    5   22 1  
    25    5   23 1  
    26    9   24 1  
    27   13   25 1  
    28   15   26 1  
    29   15   27 1  
    30   16   28 1  
    31   17   29 1  
    32   18   30 1  
    33   19   31 1  
    34   19   32 1  
    35   20   33 1  
@<TRIPOS>SUBSTRUCTURE
     1 8HG         1

