### 
### Created by X-TOOL on Mon Sep 10 21:12:54 2018
### 

@<TRIPOS>MOLECULE
2a5c_ligand
   32    34     1     0     0
SMALL
GAST_HUCK


@<TRIPOS>ATOM
      1 O19         2.8790    9.8620   22.3510 O.3       1 8DA        -0.3924
      2 C5          1.5740   10.1070   21.8320 C.3       1 8DA         0.0729
      3 C4          1.2090   11.6040   21.8700 C.3       1 8DA         0.1108
      4 C3         -0.2650   11.6700   21.9410 C.3       1 8DA         0.0885
      5 O3         -0.3550   12.9110   21.2600 O.3       1 8DA        -0.3890
      6 O4          1.6310   12.2420   23.0740 O.3       1 8DA        -0.3405
      7 C1          0.5660   12.6000   23.9590 C.3       1 8DA         0.1742
      8 C2         -0.7060   12.1650   23.2850 C.3       1 8DA         0.0301
      9 N9          0.7110   12.1260   25.3640 N.am      1 8DA        -0.1602
     10 C4          1.6300   11.3520   25.9410 C.ar      1 8DA         0.1717
     11 N3          2.7730   10.7070   25.3520 N.ar      1 8DA        -0.2859
     12 C5          1.3530   11.2090   27.3890 C.ar      1 8DA         0.1596
     13 N7          0.2220   11.9220   27.6410 N.am      1 8DA        -0.2135
     14 C8         -0.0830   12.4370   26.4110 C.2       1 8DA         0.3176
     15 O18        -1.1210   13.1860   26.2470 O.2       1 8DA        -0.3935
     16 C6          2.2620   10.4010   28.1110 C.ar      1 8DA         0.1335
     17 N6          2.0490   10.2300   29.4430 N.pl3     1 8DA        -0.3244
     18 N1          3.3360    9.8070   27.4890 N.ar      1 8DA        -0.2888
     19 C2          3.5740    9.9730   26.1620 C.ar      1 8DA         0.0372
     20 H1          2.9197   10.1550   23.2538 H         1 8DA         0.2095
     21 H2          0.8420    9.5477   22.4331 H         1 8DA         0.0584
     22 H3          1.5352    9.7584   20.7894 H         1 8DA         0.0584
     23 H4          1.6100   12.1218   20.9862 H         1 8DA         0.0646
     24 H5         -0.8108   10.7990   21.5492 H         1 8DA         0.0622
     25 H6          0.0218   12.8229   20.3924 H         1 8DA         0.2099
     26 H7          0.5481   13.6983   24.0177 H         1 8DA         0.0950
     27 H8         -1.1933   11.3606   23.8554 H         1 8DA         0.0343
     28 H9         -1.3999   13.0120   23.1795 H         1 8DA         0.0343
     29 H10        -0.2638   12.0399   28.5071 H         1 8DA         0.2249
     30 H11         2.6930    9.6474   29.9969 H         1 8DA         0.1754
     31 H12         1.2437   10.6831   29.8981 H         1 8DA         0.1754
     32 H13         4.4462    9.4956   25.7304 H         1 8DA         0.0897
@<TRIPOS>BOND
     1    1    2 1  
     2    2    3 1  
     3    3    4 1  
     4    3    6 1  
     5    4    5 1  
     6    4    8 1  
     7    6    7 1  
     8    7    8 1  
     9    7    9 1  
    10    9   10 1  
    11    9   14 am 
    12   10   11 ar 
    13   10   12 ar 
    14   11   19 ar 
    15   12   13 1  
    16   12   16 ar 
    17   13   14 am 
    18   14   15 2  
    19   16   17 1  
    20   16   18 ar 
    21   18   19 ar 
    22    1   20 1  
    23    2   21 1  
    24    2   22 1  
    25    3   23 1  
    26    4   24 1  
    27    5   25 1  
    28    7   26 1  
    29    8   27 1  
    30    8   28 1  
    31   13   29 1  
    32   17   30 1  
    33   17   31 1  
    34   19   32 1  
@<TRIPOS>SUBSTRUCTURE
     1 8DA         1

