### 
### Created by X-TOOL on Mon Sep 10 21:12:52 2018
### 

@<TRIPOS>MOLECULE
2a5s_ligand
   18    17     1     0     0
SMALL
GAST_HUCK


@<TRIPOS>ATOM
      1 N          15.8290   24.1380   38.9810 N.4       1 GLU         0.2328
      2 CA         15.9350   25.1370   37.8670 C.3       1 GLU         0.0298
      3 C          14.7680   26.1190   37.8810 C.2       1 GLU         0.0845
      4 O          14.7400   27.0040   37.0020 O.co2     1 GLU        -0.5643
      5 CB         15.9890   24.4160   36.5130 C.3       1 GLU         0.0139
      6 CG         17.3860   23.9070   36.0960 C.3       1 GLU         0.0069
      7 CD         18.4170   25.0200   35.8650 C.2       1 GLU         0.0351
      8 OE1        19.5470   24.9040   36.3950 O.co2     1 GLU        -0.5690
      9 OE2        18.1110   26.0040   35.1500 O.co2     1 GLU        -0.5690
     10 OXT        13.8990   25.9880   38.7700 O.co2     1 GLU        -0.5643
     11 H1         16.6138   23.5066   38.9419 H         1 GLU         0.2010
     12 H2         14.9724   23.6157   38.8836 H         1 GLU         0.2010
     13 H3         15.8296   24.6203   39.8661 H         1 GLU         0.2010
     14 H4         16.8675   25.7049   38.0005 H         1 GLU         0.1025
     15 H5         15.6368   25.1154   35.7404 H         1 GLU         0.0356
     16 H6         15.3115   23.5507   36.5606 H         1 GLU         0.0356
     17 H7         17.2805   23.3352   35.1623 H         1 GLU         0.0433
     18 H8         17.7637   23.2461   36.8900 H         1 GLU         0.0433
@<TRIPOS>BOND
     1    1    2 1  
     2    2    3 1  
     3    2    5 1  
     4    3    4 ar 
     5    3   10 ar 
     6    5    6 1  
     7    6    7 1  
     8    7    8 ar 
     9    7    9 ar 
    10    1   11 1  
    11    1   12 1  
    12    1   13 1  
    13    2   14 1  
    14    5   15 1  
    15    5   16 1  
    16    6   17 1  
    17    6   18 1  
@<TRIPOS>SUBSTRUCTURE
     1 GLU         1

