### 
### Created by X-TOOL on Mon Sep 10 21:12:53 2018
### 

@<TRIPOS>MOLECULE
2a5u_ligand
   25    27     1     0     0
SMALL
GAST_HUCK


@<TRIPOS>ATOM
      1 C1         43.6770   12.6420   29.7220 C.ar      1 QYT        -0.0305
      2 C2         42.7360   13.2970   30.6610 C.ar      1 QYT        -0.0449
      3 C3         43.1450   14.3460   31.4720 C.ar      1 QYT        -0.0168
      4 C7         40.2380   15.2630   33.9000 C.2       1 QYT         0.2510
      5 C11        38.4880   14.1470   32.7760 C.2       1 QYT         0.2840
      6 C13        45.4170   14.2090   30.5130 C.ar      1 QYT         0.0721
      7 C14        44.9610   13.0780   29.6650 C.ar      1 QYT         0.0738
      8 C16        47.1300   12.8870   28.7660 C.ar      1 QYT         0.0420
      9 N18        46.7620   14.6190   30.4190 N.ar      1 QYT        -0.2721
     10 C4         44.5620   14.8140   31.3680 C.ar      1 QYT        -0.0275
     11 C5         42.2430   15.0400   32.4810 C.2       1 QYT        -0.0228
     12 C6         40.9350   14.7990   32.7170 C.2       1 QYT         0.1245
     13 S8         39.8030   13.9080   31.6910 S.3       1 QYT         0.0492
     14 N9         38.8610   14.8910   33.9230 N.am      1 QYT        -0.1863
     15 O10        40.7720   15.9160   34.8020 O.2       1 QYT        -0.3704
     16 O12        37.3430   13.7130   32.5670 O.2       1 QYT        -0.3699
     17 N15        45.8980   12.4730   28.8120 N.ar      1 QYT        -0.2705
     18 C17        47.5870   14.0280   29.6180 C.ar      1 QYT         0.0414
     19 H1         43.3446   11.8265   29.0899 H         1 QYT         0.0673
     20 H2         41.7103   12.9506   30.7152 H         1 QYT         0.0679
     21 H3         47.8343   12.3991   28.1020 H         1 QYT         0.0936
     22 H4         44.9044   15.6407   31.9800 H         1 QYT         0.0647
     23 H5         42.7050   15.8214   33.0826 H         1 QYT         0.0601
     24 H6         38.2316   15.1279   34.6631 H         1 QYT         0.2257
     25 H7         48.6169   14.3618   29.5636 H         1 QYT         0.0944
@<TRIPOS>BOND
     1    2    1 ar 
     2    1    7 ar 
     3    3    2 ar 
     4    3   10 ar 
     5   11    3 1  
     6   12    4 1  
     7    4   14 am 
     8    4   15 2  
     9    5   13 1  
    10   14    5 am 
    11    5   16 2  
    12    6    7 ar 
    13    6    9 ar 
    14   10    6 ar 
    15    7   17 ar 
    16   17    8 ar 
    17   18    8 ar 
    18    9   18 ar 
    19   11   12 2  
    20   12   13 1  
    21    1   19 1  
    22    2   20 1  
    23    8   21 1  
    24   10   22 1  
    25   11   23 1  
    26   14   24 1  
    27   18   25 1  
@<TRIPOS>SUBSTRUCTURE
     1 QYT         1

