### 
### Created by X-TOOL on Mon Sep 10 21:12:55 2018
### 

@<TRIPOS>MOLECULE
2a8g_ligand
   32    34     1     0     0
SMALL
GAST_HUCK


@<TRIPOS>ATOM
      1 O5          9.3980    3.5290    0.1720 O.3       1 GNG        -0.3924
      2 C5          9.7610    2.1560    0.2790 C.3       1 GNG         0.0729
      3 C4         10.9090    2.1550    1.2640 C.3       1 GNG         0.1110
      4 O4         10.3990    1.8720    2.5630 O.3       1 GNG        -0.3392
      5 C1         11.4440    1.2120    3.2680 C.3       1 GNG         0.1731
      6 N9         11.0050    0.6070    4.5510 N.pl3     1 GNG        -0.2124
      7 C8          9.8890    0.9350    5.2250 C.2       1 GNG         0.0956
      8 N7          9.8400    0.1690    6.3250 N.2       1 GNG        -0.3235
      9 C5         10.9410   -0.6090    6.3430 C.2       1 GNG         0.0926
     10 C4         11.6880   -0.3360    5.2230 C.2       1 GNG         0.1158
     11 N3         12.8630   -1.0100    5.0090 N.2       1 GNG        -0.2765
     12 C2         13.2930   -1.9410    5.9120 C.2       1 GNG         0.2340
     13 N1         12.5570   -2.2150    6.9990 N.am      1 GNG        -0.1839
     14 C6         11.4090   -1.5690    7.2070 C.2       1 GNG         0.2135
     15 O6         10.7720   -1.8490    8.2170 O.2       1 GNG        -0.4091
     16 N2         14.4390   -2.6400    5.7710 N.pl3     1 GNG        -0.2807
     17 C2         11.9820    0.2230    2.2550 C.3       1 GNG         0.0316
     18 C3         11.9530    1.0830    1.0060 C.3       1 GNG         0.0887
     19 O3         13.2210    1.7220    0.9510 O.3       1 GNG        -0.3890
     20 H1          8.6737    3.6174   -0.4364 H         1 GNG         0.2095
     21 H2         10.0821    1.7596   -0.6956 H         1 GNG         0.0584
     22 H3          8.9197    1.5579    0.6590 H         1 GNG         0.0584
     23 H4         11.3896    3.1443    1.2457 H         1 GNG         0.0646
     24 H5         12.2324    1.9401    3.5094 H         1 GNG         0.0971
     25 H6          9.1575    1.6863    4.9312 H         1 GNG         0.1179
     26 H7         12.8690   -2.9037    7.6535 H         1 GNG         0.2515
     27 H8         15.0467   -2.4738    4.9562 H         1 GNG         0.1897
     28 H9         14.7058   -3.3397    6.4782 H         1 GNG         0.1897
     29 H10        11.3306   -0.6582    2.1590 H         1 GNG         0.0345
     30 H11        13.0033   -0.1013    2.5037 H         1 GNG         0.0345
     31 H12        11.7383    0.5026    0.0966 H         1 GNG         0.0622
     32 H13        13.2608    2.2786    0.1822 H         1 GNG         0.2099
@<TRIPOS>BOND
     1    1    2 1  
     2    2    3 1  
     3    3    4 1  
     4    3   18 1  
     5    4    5 1  
     6    5    6 1  
     7    5   17 1  
     8    6    7 1  
     9    6   10 1  
    10    7    8 2  
    11    8    9 1  
    12    9   10 2  
    13    9   14 1  
    14   10   11 1  
    15   11   12 2  
    16   12   13 am 
    17   12   16 1  
    18   13   14 am 
    19   14   15 2  
    20   17   18 1  
    21   18   19 1  
    22    1   20 1  
    23    2   21 1  
    24    2   22 1  
    25    3   23 1  
    26    5   24 1  
    27    7   25 1  
    28   13   26 1  
    29   16   27 1  
    30   16   28 1  
    31   17   29 1  
    32   17   30 1  
    33   18   31 1  
    34   19   32 1  
@<TRIPOS>SUBSTRUCTURE
     1 GNG         1

