### 
### Created by X-TOOL on Mon Sep 10 21:12:54 2018
### 

@<TRIPOS>MOLECULE
2a8h_ligand
   51    52     1     0     0
SMALL
GAST_HUCK


@<TRIPOS>ATOM
      1 C1         -7.4890   16.2720  113.1280 C.3       1 4NH        -0.0468
      2 C2         -6.8460   15.2780  112.1410 C.3       1 4NH         0.0479
      3 C3         -5.6970   14.4770  112.8330 C.3       1 4NH         0.1448
      4 N1         -6.2000   13.7420  114.0690 N.am      1 4NH        -0.2113
      5 C4         -7.3080   12.7310  113.8460 C.3       1 4NH         0.0414
      6 C5         -8.5500   13.3940  113.2830 C.3       1 4NH         0.0117
      7 S1         -8.2060   14.1210  111.6640 S.3       1 4NH        -0.1486
      8 S2         -5.5790   13.9980  115.6990 S.o2      1 4NH         0.0679
      9 O1         -4.7050   15.1530  115.7550 O.2       1 4NH        -0.1514
     10 O2         -6.6830   13.8670  116.6320 O.2       1 4NH        -0.1514
     11 C6         -4.5050   12.6080  115.9140 C.ar      1 4NH         0.0973
     12 C7         -5.0300   11.3420  116.1560 C.ar      1 4NH        -0.0440
     13 C8         -4.1620   10.2580  116.3230 C.ar      1 4NH        -0.0313
     14 C9         -2.7790   10.4430  116.2490 C.ar      1 4NH         0.0925
     15 C10        -2.2710   11.7260  116.0050 C.ar      1 4NH        -0.0313
     16 C11        -3.1290   12.8110  115.8370 C.ar      1 4NH        -0.0440
     17 O3         -1.8260    9.4690  116.3940 O.3       1 4NH        -0.3055
     18 C12        -2.0450    8.4320  117.3530 C.3       1 4NH         0.1310
     19 C13        -1.9020    8.9330  118.7250 C.1       1 4NH        -0.0638
     20 C14        -1.7850    9.3430  119.8480 C.1       1 4NH        -0.0503
     21 C15        -1.6420    9.8410  121.2130 C.3       1 4NH         0.0275
     22 N2         -2.9280    9.6830  121.9370 N.4       1 4NH         0.2275
     23 C16        -5.0490   13.5150  111.8460 C.2       1 4NH         0.2222
     24 O4         -5.6890   12.6970  111.1880 O.2       1 4NH        -0.3948
     25 N3         -3.6840   13.6670  111.7770 N.am      1 4NH        -0.1626
     26 O5         -3.0190   12.8130  110.8860 O.3       1 4NH        -0.2717
     27 C17        -6.4130   16.0430  110.8760 C.3       1 4NH        -0.0468
     28 H1         -8.2938   16.8239  112.6204 H         1 4NH         0.0245
     29 H2         -6.7265   16.9805  113.4839 H         1 4NH         0.0245
     30 H3         -7.9057   15.7211  113.9840 H         1 4NH         0.0245
     31 H4         -4.9309   15.1963  113.1582 H         1 4NH         0.0769
     32 H5         -7.5588   12.2559  114.8059 H         1 4NH         0.0488
     33 H6         -6.9579   11.9652  113.1382 H         1 4NH         0.0488
     34 H7         -8.8808   14.1855  113.9716 H         1 4NH         0.0392
     35 H8         -9.3459   12.6417  113.1795 H         1 4NH         0.0392
     36 H9         -6.1027   11.1972  116.2146 H         1 4NH         0.0608
     37 H10        -4.5644    9.2691  116.5108 H         1 4NH         0.0542
     38 H11        -1.1990   11.8760  115.9463 H         1 4NH         0.0542
     39 H12        -2.7304   13.8013  115.6486 H         1 4NH         0.0608
     40 H13        -1.3111    7.6297  117.1866 H         1 4NH         0.0752
     41 H14        -3.0614    8.0322  117.2221 H         1 4NH         0.0752
     42 H15        -1.3645   10.9051  121.1875 H         1 4NH         0.0958
     43 H16        -0.8576    9.2698  121.7310 H         1 4NH         0.0958
     44 H17        -2.8277   10.0272  122.8791 H         1 4NH         0.2004
     45 H18        -3.1826    8.7080  121.9609 H         1 4NH         0.2004
     46 H19        -3.6471   10.2065  121.4628 H         1 4NH         0.2004
     47 H20        -3.1963   14.3443  112.3279 H         1 4NH         0.2217
     48 H21        -3.3474   12.9570  110.0063 H         1 4NH         0.2490
     49 H22        -7.2786   16.5759  110.4555 H         1 4NH         0.0245
     50 H23        -6.0238   15.3318  110.1326 H         1 4NH         0.0245
     51 H24        -5.6275   16.7676  111.1365 H         1 4NH         0.0245
@<TRIPOS>BOND
     1    1    2 1  
     2    2    3 1  
     3    2    7 1  
     4    2   27 1  
     5    3    4 1  
     6    3   23 1  
     7    4    5 1  
     8    4    8 am 
     9    5    6 1  
    10    6    7 1  
    11    8    9 2  
    12    8   10 2  
    13    8   11 1  
    14   11   12 ar 
    15   11   16 ar 
    16   12   13 ar 
    17   13   14 ar 
    18   14   15 ar 
    19   14   17 1  
    20   15   16 ar 
    21   17   18 1  
    22   18   19 1  
    23   19   20 3  
    24   20   21 1  
    25   21   22 1  
    26   23   24 2  
    27   23   25 am 
    28   25   26 1  
    29    1   28 1  
    30    1   29 1  
    31    1   30 1  
    32    3   31 1  
    33    5   32 1  
    34    5   33 1  
    35    6   34 1  
    36    6   35 1  
    37   12   36 1  
    38   13   37 1  
    39   15   38 1  
    40   16   39 1  
    41   18   40 1  
    42   18   41 1  
    43   21   42 1  
    44   21   43 1  
    45   22   44 1  
    46   22   45 1  
    47   22   46 1  
    48   25   47 1  
    49   26   48 1  
    50   27   49 1  
    51   27   50 1  
    52   27   51 1  
@<TRIPOS>SUBSTRUCTURE
     1 4NH         1

