### 
### Created by X-TOOL on Mon Sep 10 21:12:52 2018
### 

@<TRIPOS>MOLECULE
2aa6_ligand
   53    56     1     0     0
SMALL
GAST_HUCK


@<TRIPOS>ATOM
      1 C1         17.5650   50.4360   18.3850 C.3       1 STR        -0.0611
      2 C2         16.5600   50.3360   19.5960 C.3       1 STR         0.0243
      3 C3         15.5210   49.2270   19.3690 C.2       1 STR         0.1764
      4 O3         14.4240   49.3330   19.9230 O.2       1 STR        -0.3440
      5 C4         15.8220   48.0460   18.5310 C.2       1 STR         0.0476
      6 C5         16.9710   47.9160   17.8890 C.2       1 STR        -0.0413
      7 C6         17.2490   46.6230   17.0850 C.3       1 STR        -0.0169
      8 C7         17.9090   46.9360   15.7290 C.3       1 STR        -0.0393
      9 C8         19.1520   47.9250   15.8060 C.3       1 STR        -0.0416
     10 C9         18.6580   49.2660   16.4440 C.3       1 STR        -0.0619
     11 C10        18.1160   49.0410   17.8990 C.3       1 STR        -0.0378
     12 C11        19.8190   50.3550   16.4740 C.3       1 STR        -0.0582
     13 C12        20.3530   50.5540   15.0120 C.3       1 STR        -0.0456
     14 C13        20.9100   49.2090   14.4040 C.3       1 STR        -0.0105
     15 C14        19.6960   48.2120   14.3940 C.3       1 STR        -0.0308
     16 C15        20.2260   47.0120   13.5640 C.3       1 STR        -0.0469
     17 C16        21.0600   47.7320   12.4050 C.3       1 STR        -0.0335
     18 C17        21.2040   49.2340   12.8600 C.3       1 STR         0.0379
     19 C18        22.1590   48.6790   15.2260 C.3       1 STR        -0.0569
     20 C19        19.2400   48.5020   18.9180 C.3       1 STR        -0.0890
     21 C20        22.5740   49.8490   12.5190 C.2       1 STR         0.1055
     22 O20        23.4690   49.1410   12.1170 O.2       1 STR        -0.3916
     23 C21        22.7740   51.3250   12.6770 C.3       1 STR         0.0097
     24 H1         18.4185   51.0578   18.6930 H         1 STR         0.0172
     25 H2         17.0462   50.9166   17.5425 H         1 STR         0.0172
     26 H3         16.0385   51.2978   19.7092 H         1 STR         0.0483
     27 H4         17.1252   50.1151   20.5134 H         1 STR         0.0483
     28 H5         15.0746   47.2593   18.4398 H         1 STR         0.1318
     29 H6         16.2976   46.1001   16.9078 H         1 STR         0.0450
     30 H7         17.9200   45.9757   17.6688 H         1 STR         0.0450
     31 H8         17.1499   47.3905   15.0755 H         1 STR         0.0293
     32 H9         18.2523   45.9884   15.2884 H         1 STR         0.0293
     33 H10        19.9456   47.4808   16.4247 H         1 STR         0.0299
     34 H11        17.8358   49.6537   15.8246 H         1 STR         0.0187
     35 H12        20.6363   50.0083   17.1235 H         1 STR         0.0259
     36 H13        19.4245   51.3074   16.8577 H         1 STR         0.0259
     37 H14        21.1614   51.2999   15.0265 H         1 STR         0.0272
     38 H15        19.5302   50.9172   14.3787 H         1 STR         0.0272
     39 H16        18.8655   48.6675   13.8347 H         1 STR         0.0310
     40 H17        19.3975   46.4199   13.1480 H         1 STR         0.0270
     41 H18        20.8716   46.3621   14.1729 H         1 STR         0.0270
     42 H19        20.5207   47.6703   11.4483 H         1 STR         0.0293
     43 H20        22.0507   47.2661   12.2982 H         1 STR         0.0293
     44 H21        20.4360   49.8383   12.3551 H         1 STR         0.0535
     45 H22        21.9170   48.6755   16.2990 H         1 STR         0.0237
     46 H23        23.0219   49.3373   15.0469 H         1 STR         0.0237
     47 H24        22.4041   47.6568   14.9021 H         1 STR         0.0237
     48 H25        18.7960   48.3662   19.9152 H         1 STR         0.0112
     49 H26        20.0606   49.2320   18.9784 H         1 STR         0.0112
     50 H27        19.6313   47.5395   18.5567 H         1 STR         0.0112
     51 H28        23.8031   51.5882   12.3911 H         1 STR         0.0459
     52 H29        22.6010   51.6083   13.7257 H         1 STR         0.0459
     53 H30        22.0649   51.8624   12.0302 H         1 STR         0.0459
@<TRIPOS>BOND
     1    1    2 1  
     2    1   11 1  
     3    2    3 1  
     4    3    4 2  
     5    3    5 1  
     6    5    6 2  
     7    6    7 1  
     8    6   11 1  
     9    7    8 1  
    10    8    9 1  
    11    9   10 1  
    12    9   15 1  
    13   10   11 1  
    14   10   12 1  
    15   11   20 1  
    16   12   13 1  
    17   13   14 1  
    18   14   15 1  
    19   14   18 1  
    20   14   19 1  
    21   15   16 1  
    22   16   17 1  
    23   17   18 1  
    24   18   21 1  
    25   21   22 2  
    26   21   23 1  
    27    1   24 1  
    28    1   25 1  
    29    2   26 1  
    30    2   27 1  
    31    5   28 1  
    32    7   29 1  
    33    7   30 1  
    34    8   31 1  
    35    8   32 1  
    36    9   33 1  
    37   10   34 1  
    38   12   35 1  
    39   12   36 1  
    40   13   37 1  
    41   13   38 1  
    42   15   39 1  
    43   16   40 1  
    44   16   41 1  
    45   17   42 1  
    46   17   43 1  
    47   18   44 1  
    48   19   45 1  
    49   19   46 1  
    50   19   47 1  
    51   20   48 1  
    52   20   49 1  
    53   20   50 1  
    54   23   51 1  
    55   23   52 1  
    56   23   53 1  
@<TRIPOS>SUBSTRUCTURE
     1 STR         1

