### 
### Created by X-TOOL on Mon Sep 10 21:12:53 2018
### 

@<TRIPOS>MOLECULE
2aa9_ligand
   21    21     1     0     0
SMALL
GAST_HUCK


@<TRIPOS>ATOM
      1 O12        56.6790    8.6380   30.4740 O.3       1 SKM        -0.3844
      2 C8         56.6260    9.9260   29.8790 C.3       1 SKM         0.1166
      3 C6         57.9020   10.2560   29.1100 C.3       1 SKM         0.0919
      4 O7         59.0440   10.1580   29.9750 O.3       1 SKM        -0.3873
      5 C5         57.7680   11.6890   28.5680 C.3       1 SKM         0.0034
      6 C4         56.5170   12.0620   27.9730 C.2       1 SKM        -0.0210
      7 C1         56.3950   13.3500   27.1710 C.2       1 SKM         0.0477
      8 O2         55.4970   13.3990   26.2960 O.co2     1 SKM        -0.5666
      9 O3         57.1220   14.3070   27.4410 O.co2     1 SKM        -0.5666
     10 C10        55.3580   11.2710   28.1490 C.2       1 SKM        -0.0472
     11 C9         55.4030    9.9800   28.9340 C.3       1 SKM         0.1076
     12 O11        55.4060    8.8830   28.0370 O.3       1 SKM        -0.3778
     13 H1         57.4089    8.6006   31.0809 H         1 SKM         0.2103
     14 H2         56.4981   10.6755   30.6739 H         1 SKM         0.0671
     15 H3         58.0215    9.5530   28.2724 H         1 SKM         0.0640
     16 H4         58.9479   10.7701   30.6950 H         1 SKM         0.2101
     17 H5         58.5486   11.8262   27.8052 H         1 SKM         0.0411
     18 H6         57.9506   12.3762   29.4072 H         1 SKM         0.0411
     19 H7         54.4160   11.5979   27.7111 H         1 SKM         0.0592
     20 H8         54.4948    9.9208   29.5517 H         1 SKM         0.0775
     21 H9         55.4343    8.0718   28.5307 H         1 SKM         0.2132
@<TRIPOS>BOND
     1    1    2 1  
     2    2    3 1  
     3    2   11 1  
     4    3    4 1  
     5    3    5 1  
     6    5    6 1  
     7    6    7 1  
     8    6   10 2  
     9    7    8 ar 
    10    7    9 ar 
    11   10   11 1  
    12   11   12 1  
    13    1   13 1  
    14    2   14 1  
    15    3   15 1  
    16    4   16 1  
    17    5   17 1  
    18    5   18 1  
    19   10   19 1  
    20   11   20 1  
    21   12   21 1  
@<TRIPOS>SUBSTRUCTURE
     1 SKM         1

