### 
### Created by X-TOOL on Fri Nov 18 12:08:11 2016
### 

@<TRIPOS>MOLECULE
2aac_ligand
   23    23     1     0     0
SMALL
GAST_HUCK


@<TRIPOS>ATOM
      1 C1         39.7740    2.5030   42.5190 C.3       1 FCB         0.1853
      2 C2         39.6580    2.0070   41.0830 C.3       1 FCB         0.1339
      3 C3         38.4640    2.6540   40.3860 C.3       1 FCB         0.1140
      4 C4         37.1990    2.5190   41.2150 C.3       1 FCB         0.1095
      5 C5         37.4570    3.0510   42.6210 C.3       1 FCB         0.0873
      6 C6         36.2440    2.9120   43.5180 C.3       1 FCB        -0.0361
      7 O1         40.7570    1.7910   43.1640 O.3       1 FCB        -0.3649
      8 O2         40.8410    2.3290   40.3790 O.3       1 FCB        -0.3841
      9 O3         38.2750    2.0400   39.1200 O.3       1 FCB        -0.3864
     10 O4         36.8240    1.1460   41.2920 O.3       1 FCB        -0.3866
     11 O5         38.5500    2.3040   43.2170 O.3       1 FCB        -0.3433
     12 H1         40.0276    3.5733   42.5167 H         1 FCB         0.0935
     13 H2         39.5231    0.9153   41.0891 H         1 FCB         0.0671
     14 H3         38.6763    3.7233   40.2395 H         1 FCB         0.0648
     15 H4         36.3885    3.0959   40.7457 H         1 FCB         0.0646
     16 H5         37.7308    4.1142   42.5528 H         1 FCB         0.0621
     17 H6         36.4794    3.3080   44.5169 H         1 FCB         0.0255
     18 H7         35.9684    1.8503   43.6002 H         1 FCB         0.0255
     19 H8         35.4036    3.4768   43.0883 H         1 FCB         0.0255
     20 H9         40.8364    2.1015   44.0583 H         1 FCB         0.2126
     21 H10        41.5828    1.9115   40.8008 H         1 FCB         0.2101
     22 H11        39.0560    2.1583   38.5921 H         1 FCB         0.2100
     23 H12        36.6661    0.8124   40.4166 H         1 FCB         0.2100
@<TRIPOS>BOND
     1   11    1 1  
     2    1    7 1  
     3    1    2 1  
     4    2    8 1  
     5    2    3 1  
     6    3    9 1  
     7    3    4 1  
     8    4   10 1  
     9    4    5 1  
    10    5   11 1  
    11    5    6 1  
    12    1   12 1  
    13    2   13 1  
    14    3   14 1  
    15    4   15 1  
    16    5   16 1  
    17    6   17 1  
    18    6   18 1  
    19    6   19 1  
    20    7   20 1  
    21    8   21 1  
    22    9   22 1  
    23   10   23 1  
@<TRIPOS>SUBSTRUCTURE
     1 FCB         1

