### 
### Created by X-TOOL on Mon Sep 10 21:12:53 2018
### 

@<TRIPOS>MOLECULE
2aay_ligand
   21    21     1     0     0
SMALL
GAST_HUCK


@<TRIPOS>ATOM
      1 O12        56.1270    8.6470   30.3120 O.3       1 SKM        -0.3844
      2 C8         55.9970    9.9670   29.7580 C.3       1 SKM         0.1166
      3 C6         57.2660   10.4120   29.0430 C.3       1 SKM         0.0919
      4 O7         58.3510   10.3590   29.9600 O.3       1 SKM        -0.3873
      5 C5         57.0650   11.8530   28.5370 C.3       1 SKM         0.0034
      6 C4         55.8100   12.1340   27.8890 C.2       1 SKM        -0.0210
      7 C1         55.6490   13.3790   27.0720 C.2       1 SKM         0.0477
      8 O2         54.7310   13.3910   26.2080 O.co2     1 SKM        -0.5666
      9 O3         56.3560   14.3300   27.3490 O.co2     1 SKM        -0.5666
     10 C10        54.7080   11.2690   28.0110 C.2       1 SKM        -0.0472
     11 C9         54.8130    9.9790   28.7880 C.3       1 SKM         0.1076
     12 O11        54.8610    8.8400   27.8670 O.3       1 SKM        -0.3778
     13 H1         56.8409    8.6367   30.9388 H         1 SKM         0.2103
     14 H2         55.7955   10.6732   30.5769 H         1 SKM         0.0671
     15 H3         57.4698    9.7462   28.1914 H         1 SKM         0.0640
     16 H4         58.1737   10.9375   30.6924 H         1 SKM         0.2101
     17 H5         57.8689   12.0708   27.8185 H         1 SKM         0.0411
     18 H6         57.1535   12.5270   29.4018 H         1 SKM         0.0411
     19 H7         53.7638   11.5339   27.5374 H         1 SKM         0.0592
     20 H8         53.8984    9.8823   29.3914 H         1 SKM         0.0775
     21 H9         54.9270    8.0339   28.3653 H         1 SKM         0.2132
@<TRIPOS>BOND
     1    1    2 1  
     2    2    3 1  
     3    2   11 1  
     4    3    4 1  
     5    3    5 1  
     6    5    6 1  
     7    6    7 1  
     8    6   10 2  
     9    7    8 ar 
    10    7    9 ar 
    11   10   11 1  
    12   11   12 1  
    13    1   13 1  
    14    2   14 1  
    15    3   15 1  
    16    4   16 1  
    17    5   17 1  
    18    5   18 1  
    19   10   19 1  
    20   11   20 1  
    21   12   21 1  
@<TRIPOS>SUBSTRUCTURE
     1 SKM         1

