### 
### Created by X-TOOL on Mon Sep 10 21:12:45 2018
### 

@<TRIPOS>MOLECULE
2ada_ligand
   31    33     1     0     0
SMALL
GAST_HUCK


@<TRIPOS>ATOM
      1 N1          1.3740   21.0250   39.0150 N.am      1 HPR        -0.2042
      2 C2          2.3800   20.6620   39.8120 C.2       1 HPR         0.1273
      3 N3          3.5440   20.1910   39.3810 N.2       1 HPR        -0.2683
      4 C4          3.7140   20.0710   38.0510 C.2       1 HPR         0.1354
      5 C5          2.7580   20.4160   37.1670 C.2       1 HPR         0.1044
      6 C6          1.4950   20.9620   37.6150 C.2       1 HPR         0.2200
      7 O6          1.2590   22.2410   37.0340 O.2       1 HPR        -0.4066
      8 N7          3.2090   20.1790   35.9160 N.2       1 HPR        -0.3155
      9 C8          4.4450   19.6980   36.0730 C.2       1 HPR         0.1004
     10 N9          4.7840   19.6280   37.3620 N.pl3     1 HPR        -0.2045
     11 C1'         5.9050   18.9790   37.9010 C.3       1 HPR         0.2003
     12 C2'         6.2900   17.7450   37.0850 C.3       1 HPR         0.1389
     13 O2'         6.5180   16.7490   38.0750 O.3       1 HPR        -0.3835
     14 C3'         7.6790   18.0480   36.5420 C.3       1 HPR         0.1146
     15 O3'         8.5210   16.8940   36.5830 O.3       1 HPR        -0.3864
     16 C4'         8.1990   19.1680   37.4400 C.3       1 HPR         0.1136
     17 O4'         7.0470   19.8500   37.9560 O.3       1 HPR        -0.3365
     18 C5'         9.1110   20.1360   36.6980 C.3       1 HPR         0.0730
     19 O5'         8.6500   20.4200   35.3740 O.3       1 HPR        -0.3924
     20 H1          0.5185   21.3477   39.4200 H         1 HPR         0.2557
     21 H2          2.2371   20.7583   40.8873 H         1 HPR         0.1493
     22 H3          5.0951   19.4001   35.2517 H         1 HPR         0.1213
     23 H4          5.6543   18.6613   38.9238 H         1 HPR         0.1001
     24 H5          5.5561   17.4642   36.3152 H         1 HPR         0.0677
     25 H6          6.7661   15.9351   37.6525 H         1 HPR         0.2101
     26 H7          7.6119   18.3983   35.5015 H         1 HPR         0.0648
     27 H8          8.6070   16.5979   37.4816 H         1 HPR         0.2100
     28 H9          8.7674   18.7273   38.2723 H         1 HPR         0.0647
     29 H10        10.1163   19.6942   36.6339 H         1 HPR         0.0584
     30 H11         9.1599   21.0781   37.2637 H         1 HPR         0.0584
     31 H12         8.6108   19.6134   34.8737 H         1 HPR         0.2095
@<TRIPOS>BOND
     1    2    1 am 
     2    1    6 am 
     3    2    3 2  
     4    3    4 1  
     5    4    5 2  
     6    4   10 1  
     7    5    6 1  
     8    5    8 1  
     9    6    7 2  
    10    8    9 2  
    11   10    9 1  
    12   10   11 1  
    13   11   12 1  
    14   11   17 1  
    15   12   13 1  
    16   12   14 1  
    17   14   15 1  
    18   14   16 1  
    19   16   17 1  
    20   16   18 1  
    21   18   19 1  
    22    1   20 1  
    23    2   21 1  
    24    9   22 1  
    25   11   23 1  
    26   12   24 1  
    27   13   25 1  
    28   14   26 1  
    29   15   27 1  
    30   16   28 1  
    31   18   29 1  
    32   18   30 1  
    33   19   31 1  
@<TRIPOS>SUBSTRUCTURE
     1 HPR         1

