### 
### Created by X-TOOL on Mon Sep 10 21:12:53 2018
### 

@<TRIPOS>MOLECULE
2adu_ligand
   21    22     1     0     0
SMALL
GAST_HUCK


@<TRIPOS>ATOM
      1 C1         19.6180   30.7460   16.2430 C.ar      1 R20        -0.0266
      2 C2         19.8350   29.2910   16.2940 C.2       1 R20         0.0682
      3 C3         18.2940   31.2890   16.3020 C.ar      1 R20        -0.0594
      4 C4         20.7140   31.6560   16.0970 C.ar      1 R20        -0.0669
      5 C5         20.9750   28.4970   16.1830 C.2       1 R20         0.0847
      6 C7         18.0690   32.7080   16.2610 C.ar      1 R20        -0.0506
      7 C8         20.4880   33.0660   16.0570 C.ar      1 R20        -0.0726
      8 C11        19.1640   33.5860   16.1210 C.ar      1 R20        -0.0648
      9 C12        16.6720   33.2570   16.3340 C.3       1 R20        -0.0322
     10 N6         18.8350   28.3540   16.5010 N.2       1 R20        -0.2167
     11 N9         20.6520   27.1750   16.3120 N.pl3     1 R20        -0.1807
     12 N10        19.3320   27.0920   16.5070 N.2       1 R20        -0.0930
     13 H1         17.4464   30.6177   16.3790 H         1 R20         0.0517
     14 H2         21.7243   31.2715   16.0161 H         1 R20         0.0525
     15 H3         21.9821   28.8766   16.0168 H         1 R20         0.1075
     16 H4         21.3298   33.7443   15.9774 H         1 R20         0.0589
     17 H5         18.9977   34.6556   16.0622 H         1 R20         0.0522
     18 H6         15.9573   32.4277   16.4416 H         1 R20         0.0389
     19 H7         16.4491   33.8160   15.4132 H         1 R20         0.0389
     20 H8         16.5869   33.9291   17.2006 H         1 R20         0.0389
     21 H9         21.3092   26.3832   16.2669 H         1 R20         0.2708
@<TRIPOS>BOND
     1    1    2 1  
     2    1    3 ar 
     3    1    4 ar 
     4    2    5 2  
     5    2   10 1  
     6    3    6 ar 
     7    4    7 ar 
     8    5   11 1  
     9    6    8 ar 
    10    6    9 1  
    11    7    8 ar 
    12   10   12 2  
    13   11   12 1  
    14    3   13 1  
    15    4   14 1  
    16    5   15 1  
    17    7   16 1  
    18    8   17 1  
    19    9   18 1  
    20    9   19 1  
    21    9   20 1  
    22   11   21 1  
@<TRIPOS>SUBSTRUCTURE
     1 R20         1

