### 
### Created by X-TOOL on Mon Sep 10 21:12:54 2018
### 

@<TRIPOS>MOLECULE
2aei_ligand
   65    68     1     0     0
SMALL
GAST_HUCK


@<TRIPOS>ATOM
      1 C1         31.1030    7.3540    7.1980 C.ar      1 03R         0.1966
      2 N2         30.6150    7.4150    8.4910 N.ar      1 03R        -0.2643
      3 C3         32.3180    8.0170    6.9030 C.ar      1 03R         0.1937
      4 O4         30.5370    6.6820    6.1530 O.3       1 03R        -0.2449
      5 C5         31.2940    8.1120    9.4690 C.ar      1 03R         0.1955
      6 C6         33.0170    8.7220    7.8920 C.ar      1 03R         0.1105
      7 F7         32.7690    7.9620    5.6870 F         1 03R        -0.1996
      8 C8         29.3380    6.0330    6.1020 C.ar      1 03R         0.1324
      9 C9         32.4940    8.7450    9.1580 C.ar      1 03R         0.1935
     10 O10        30.9660    8.3450   10.7460 O.3       1 03R        -0.2483
     11 N11        34.1740    9.3640    7.5720 N.pl3     1 03R        -0.3164
     12 C12        28.0330    6.5320    6.5030 C.ar      1 03R         0.0436
     13 C13        29.4680    4.7020    5.6420 C.ar      1 03R        -0.0242
     14 F14        33.0910    9.3930   10.1100 F         1 03R        -0.1996
     15 C15        29.9970    7.9580   11.5720 C.ar      1 03R         0.1174
     16 C16        34.5550   10.7410    7.8440 C.3       1 03R         0.0346
     17 C17        26.9310    5.6400    6.4530 C.ar      1 03R        -0.0551
     18 C18        27.7730    7.8590    6.8620 C.2       1 03R         0.0590
     19 C19        28.3530    3.8510    5.5900 C.ar      1 03R        -0.0668
     20 C20        30.3060    7.4020   12.8360 C.ar      1 03R        -0.0230
     21 C21        28.6570    8.1980   11.2400 C.ar      1 03R        -0.0282
     22 C22        35.7970   10.8260    8.7390 C.3       1 03R        -0.0210
     23 C23        33.4210   11.6160    8.4500 C.3       1 03R        -0.0424
     24 C24        27.0870    4.3160    6.0110 C.ar      1 03R        -0.0685
     25 O25        26.8420    8.1470    7.6380 O.co2     1 03R        -0.5640
     26 O26        28.5070    8.8810    6.3850 O.co2     1 03R        -0.5640
     27 C27        29.2820    7.0790   13.7620 C.ar      1 03R         0.0182
     28 C28        27.6500    7.8910   12.1190 C.ar      1 03R        -0.0695
     29 C29        36.7450    9.6040    8.8150 C.3       1 03R        -0.0171
     30 C30        27.9590    7.3420   13.3690 C.ar      1 03R        -0.0669
     31 C31        29.5460    6.5410   15.0410 C.cat     1 03R         0.2332
     32 C32        36.6190    8.7820   10.0360 C.ar      1 03R        -0.0429
     33 N33        29.1370    7.1670   16.1610 N.pl3     1 03R        -0.2723
     34 N34        30.2120    5.3850   15.2490 N.pl3     1 03R        -0.2723
     35 C35        35.6290    7.7720   10.1260 C.ar      1 03R        -0.0603
     36 C36        37.4850    8.9910   11.1430 C.ar      1 03R        -0.0603
     37 C37        35.5030    6.9900   11.2860 C.ar      1 03R        -0.0686
     38 C38        37.3600    8.2070   12.3080 C.ar      1 03R        -0.0686
     39 C39        36.3690    7.2070   12.3810 C.ar      1 03R        -0.0687
     40 H1         34.8734    8.7987    7.0699 H         1 03R         0.1769
     41 H2         30.4382    4.3355    5.3265 H         1 03R         0.0561
     42 H3         34.8183   11.1872    6.8737 H         1 03R         0.0548
     43 H4         25.9512    5.9864    6.7614 H         1 03R         0.0624
     44 H5         28.4633    2.8358    5.2264 H         1 03R         0.0612
     45 H6         31.3414    7.2202   13.1004 H         1 03R         0.0553
     46 H7         28.4134    8.6315   10.2768 H         1 03R         0.0553
     47 H8         35.4457   11.0270    9.7618 H         1 03R         0.0309
     48 H9         36.3950   11.6777    8.3826 H         1 03R         0.0309
     49 H10        33.7967   12.6355    8.6219 H         1 03R         0.0252
     50 H11        33.0924   11.1804    9.4051 H         1 03R         0.0252
     51 H12        32.5719   11.6511    7.7516 H         1 03R         0.0252
     52 H13        26.2331    3.6485    5.9928 H         1 03R         0.0537
     53 H14        26.6168    8.0731   11.8463 H         1 03R         0.0591
     54 H15        37.7798    9.9727    8.7589 H         1 03R         0.0427
     55 H16        36.5381    8.9590    7.9483 H         1 03R         0.0427
     56 H17        27.1521    7.1125   14.0555 H         1 03R         0.0529
     57 H18        29.3403    6.7569   17.0837 H         1 03R         0.3181
     58 H19        28.6209    8.0559   16.0949 H         1 03R         0.3181
     59 H20        30.5611    4.8404   14.4475 H         1 03R         0.3181
     60 H21        30.3710    5.0478   16.2092 H         1 03R         0.3181
     61 H22        34.9610    7.6009    9.2896 H         1 03R         0.0557
     62 H23        38.2479    9.7594   11.0913 H         1 03R         0.0557
     63 H24        34.7416    6.2203   11.3410 H         1 03R         0.0599
     64 H25        38.0256    8.3730   13.1473 H         1 03R         0.0599
     65 H26        36.2715    6.6047   13.2770 H         1 03R         0.0559
@<TRIPOS>BOND
     1    1    2 ar 
     2    1    3 ar 
     3    1    4 1  
     4    2    5 ar 
     5    3    6 ar 
     6    3    7 1  
     7    4    8 1  
     8    5    9 ar 
     9    5   10 1  
    10    6    9 ar 
    11    6   11 1  
    12    8   12 ar 
    13    8   13 ar 
    14    9   14 1  
    15   10   15 1  
    16   11   16 1  
    17   12   17 ar 
    18   12   18 1  
    19   13   19 ar 
    20   15   20 ar 
    21   15   21 ar 
    22   16   22 1  
    23   16   23 1  
    24   17   24 ar 
    25   18   25 ar 
    26   18   26 ar 
    27   19   24 ar 
    28   20   27 ar 
    29   21   28 ar 
    30   22   29 1  
    31   27   30 ar 
    32   27   31 1  
    33   28   30 ar 
    34   29   32 1  
    35   31   33 ar 
    36   31   34 ar 
    37   32   35 ar 
    38   32   36 ar 
    39   35   37 ar 
    40   36   38 ar 
    41   37   39 ar 
    42   38   39 ar 
    43   11   40 1  
    44   13   41 1  
    45   16   42 1  
    46   17   43 1  
    47   19   44 1  
    48   20   45 1  
    49   21   46 1  
    50   22   47 1  
    51   22   48 1  
    52   23   49 1  
    53   23   50 1  
    54   23   51 1  
    55   24   52 1  
    56   28   53 1  
    57   29   54 1  
    58   29   55 1  
    59   30   56 1  
    60   33   57 1  
    61   33   58 1  
    62   34   59 1  
    63   34   60 1  
    64   35   61 1  
    65   36   62 1  
    66   37   63 1  
    67   38   64 1  
    68   39   65 1  
@<TRIPOS>SUBSTRUCTURE
     1 03R         1

