### 
### Created by X-TOOL on Mon Sep 10 21:12:53 2018
### 

@<TRIPOS>MOLECULE
2ael_ligand
   41    41     1     0     0
SMALL
GAST_HUCK


@<TRIPOS>ATOM
      1 C01        38.1100   72.2130   35.1580 C.3       1 SAZ        -0.0163
      2 C02        38.6790   70.7410   35.2550 C.3       1 SAZ        -0.0001
      3 C03        36.6010   72.1120   34.7780 C.3       1 SAZ        -0.0035
      4 C05        38.0410   70.0760   36.5180 C.3       1 SAZ        -0.0234
      5 C07        35.8650   71.2050   35.7960 C.2       1 SAZ        -0.1037
      6 N08        38.8470   73.1630   34.1990 N.4       1 SAZ         0.2371
      7 C09        38.4460   74.8150   37.2320 C.2       1 SAZ        -0.1043
      8 C10        38.4460   75.1940   35.7700 C.3       1 SAZ        -0.0065
      9 C11        39.4210   74.3550   34.8810 C.3       1 SAZ        -0.0288
     10 C14        37.4230   74.4450   38.0420 C.2       1 SAZ        -0.0869
     11 C17        35.9560   74.3140   37.6820 C.3       1 SAZ        -0.0406
     12 C18        37.7010   74.1060   39.4730 C.3       1 SAZ        -0.0406
     13 C19        39.9710   72.5760   33.4730 C.3       1 SAZ        -0.0426
     14 C31        36.5090   70.2840   36.5910 C.2       1 SAZ        -0.0837
     15 C32        35.7680   69.4360   37.5720 C.3       1 SAZ        -0.0404
     16 H1         38.1851   72.6577   36.1613 H         1 SAZ         0.0868
     17 H2         39.7740   70.7670   35.3563 H         1 SAZ         0.0342
     18 H3         38.4076   70.1727   34.3532 H         1 SAZ         0.0342
     19 H4         36.5059   71.6821   33.7700 H         1 SAZ         0.0394
     20 H5         36.1524   73.1163   34.7922 H         1 SAZ         0.0394
     21 H6         38.4992   70.5149   37.4166 H         1 SAZ         0.0412
     22 H7         38.2489   68.9962   36.4905 H         1 SAZ         0.0412
     23 H8         34.7841   71.3009   35.8872 H         1 SAZ         0.0244
     24 H9         38.1658   73.4747   33.5246 H         1 SAZ         0.2036
     25 H10        39.4230   74.8433   37.7123 H         1 SAZ         0.0244
     26 H11        38.7335   76.2527   35.6898 H         1 SAZ         0.0391
     27 H12        37.4259   75.0606   35.3808 H         1 SAZ         0.0391
     28 H13        39.8213   75.0228   34.1040 H         1 SAZ         0.0830
     29 H14        40.2426   74.0072   35.5245 H         1 SAZ         0.0830
     30 H15        35.3882   73.9940   38.5681 H         1 SAZ         0.0375
     31 H16        35.8398   73.5672   36.8828 H         1 SAZ         0.0375
     32 H17        35.5756   75.2857   37.3341 H         1 SAZ         0.0375
     33 H18        38.7765   74.2188   39.6742 H         1 SAZ         0.0375
     34 H19        37.3983   73.0668   39.6691 H         1 SAZ         0.0375
     35 H20        37.1326   74.7832   40.1274 H         1 SAZ         0.0375
     36 H21        39.6313   71.6791   32.9343 H         1 SAZ         0.0778
     37 H22        40.7624   72.2984   34.1847 H         1 SAZ         0.0778
     38 H23        40.3654   73.3085   32.7534 H         1 SAZ         0.0778
     39 H24        34.6956   69.6768   37.5282 H         1 SAZ         0.0375
     40 H25        36.1467   69.6322   38.5859 H         1 SAZ         0.0375
     41 H26        35.9158   68.3745   37.3244 H         1 SAZ         0.0375
@<TRIPOS>BOND
     1    1    2 1  
     2    1    3 1  
     3    6    1 1  
     4    2    4 1  
     5    3    5 1  
     6    4   14 1  
     7    5   14 2  
     8    9    6 1  
     9    6   13 1  
    10    8    7 1  
    11    7   10 2  
    12    8    9 1  
    13   10   11 1  
    14   10   12 1  
    15   14   15 1  
    16    1   16 1  
    17    2   17 1  
    18    2   18 1  
    19    3   19 1  
    20    3   20 1  
    21    4   21 1  
    22    4   22 1  
    23    5   23 1  
    24    6   24 1  
    25    7   25 1  
    26    8   26 1  
    27    8   27 1  
    28    9   28 1  
    29    9   29 1  
    30   11   30 1  
    31   11   31 1  
    32   11   32 1  
    33   12   33 1  
    34   12   34 1  
    35   12   35 1  
    36   13   36 1  
    37   13   37 1  
    38   13   38 1  
    39   15   39 1  
    40   15   40 1  
    41   15   41 1  
@<TRIPOS>SUBSTRUCTURE
     1 SAZ         1

