### 
### Created by X-TOOL on Mon Sep 10 21:12:54 2018
### 

@<TRIPOS>MOLECULE
2aez_ligand
   66    68     1     0     0
SMALL
GAST_HUCK


@<TRIPOS>ATOM
      1 C1          9.0700   73.6060   -3.5590 C.3       1 DQR         0.1912
      2 C10         6.5830   71.7190   -3.6820 C.3       1 DQR         0.1078
      3 C11         8.0330   68.6460   -2.1000 C.3       1 DQR         0.1008
      4 C2         10.3730   73.0380   -2.9690 C.3       1 DQR         0.1342
      5 C20         6.6920   73.1220   -3.0810 C.3       1 DQR         0.2256
      6 C21         7.1380   69.2810   -3.1540 C.3       1 DQR         0.2231
      7 C3         10.9900   73.9920   -1.9530 C.3       1 DQR         0.1141
      8 C30         5.7150   73.1820   -1.9130 C.3       1 DQR         0.1395
      9 C31         5.7840   68.5280   -3.3560 C.3       1 DQR         0.1394
     10 C4         11.2180   75.3660   -2.5810 C.3       1 DQR         0.1119
     11 C40         4.8640   74.3970   -2.2430 C.3       1 DQR         0.1145
     12 C41         5.4410   68.7950   -4.7990 C.3       1 DQR         0.1145
     13 C5          9.8530   75.9080   -3.0580 C.3       1 DQR         0.1130
     14 C50         5.0080   74.5930   -3.7680 C.3       1 DQR         0.1134
     15 C51         6.8160   68.8660   -5.5000 C.3       1 DQR         0.1134
     16 C6          9.9610   77.2690   -3.7090 C.3       1 DQR         0.0730
     17 C60         5.0420   76.0350   -4.1990 C.3       1 DQR         0.0730
     18 C61         6.9080   69.9270   -6.5860 C.3       1 DQR         0.0730
     19 O1          8.0020   73.5100   -2.6160 O.3       1 DQR        -0.3125
     20 O10         6.9520   70.6790   -2.7210 O.3       1 DQR        -0.3391
     21 O11         8.3040   67.2790   -2.3610 O.3       1 DQR        -0.3896
     22 O2         10.1370   71.7290   -2.4610 O.3       1 DQR        -0.3841
     23 O20         6.2450   73.9560   -4.1280 O.3       1 DQR        -0.3362
     24 O21         7.7780   69.1680   -4.4290 O.3       1 DQR        -0.3363
     25 O3         12.2090   73.3910   -1.4890 O.3       1 DQR        -0.3864
     26 O30         6.3820   73.3640   -0.6640 O.3       1 DQR        -0.3837
     27 O31         4.7310   68.9720   -2.5160 O.3       1 DQR        -0.3837
     28 O4         11.8060   76.2630   -1.6300 O.3       1 DQR        -0.3865
     29 O40         3.5130   74.2110   -1.8180 O.3       1 DQR        -0.3864
     30 O41         4.5630   67.8040   -5.3160 O.3       1 DQR        -0.3864
     31 O5          9.2780   74.9570   -4.0430 O.3       1 DQR        -0.3404
     32 O60         5.1910   76.0710   -5.6160 O.3       1 DQR        -0.3924
     33 O61         8.2110   69.9230   -7.1590 O.3       1 DQR        -0.3924
     34 O6          8.3710   77.7190   -4.1520 O.3       1 DQR        -0.3924
     35 H1          8.7965   72.9864   -4.4258 H         1 DQR         0.0939
     36 H2          7.2533   71.6524   -4.5516 H         1 DQR         0.0616
     37 H3          5.5451   71.5511   -4.0053 H         1 DQR         0.0616
     38 H4          7.5354   68.7252   -1.1222 H         1 DQR         0.0612
     39 H5          8.9863   69.1941   -2.0718 H         1 DQR         0.0612
     40 H6         11.0960   72.9405   -3.7922 H         1 DQR         0.0671
     41 H7         10.3041   74.1108   -1.1013 H         1 DQR         0.0648
     42 H8          5.1027   72.2692   -1.8688 H         1 DQR         0.0675
     43 H9          5.9317   67.4512   -3.1870 H         1 DQR         0.0675
     44 H10        11.8938   75.2662   -3.4431 H         1 DQR         0.0647
     45 H11         5.2650   75.2811   -1.7257 H         1 DQR         0.0648
     46 H12         4.9379   69.7690   -4.8897 H         1 DQR         0.0648
     47 H13         9.1827   75.9854   -2.1893 H         1 DQR         0.0647
     48 H14         4.1671   74.0983   -4.2761 H         1 DQR         0.0647
     49 H15         7.0443   67.8887   -5.9502 H         1 DQR         0.0647
     50 H16        10.6034   77.2147   -4.6003 H         1 DQR         0.0584
     51 H17        10.3791   77.9982   -2.9995 H         1 DQR         0.0584
     52 H18         5.8908   76.5467   -3.7219 H         1 DQR         0.0584
     53 H19         4.1045   76.5326   -3.9101 H         1 DQR         0.0584
     54 H20         6.7054   70.9155   -6.1481 H         1 DQR         0.0584
     55 H21         6.1650   69.7132   -7.3685 H         1 DQR         0.0584
     56 H22         8.7412   67.1987   -3.2005 H         1 DQR         0.2096
     57 H23         9.5406   71.7796   -1.7233 H         1 DQR         0.2101
     58 H24        12.0173   72.5420   -1.1083 H         1 DQR         0.2100
     59 H25         6.9421   74.1297   -0.7140 H         1 DQR         0.2101
     60 H26         3.9326   68.5079   -2.7388 H         1 DQR         0.2101
     61 H27        12.6439   75.9169   -1.3460 H         1 DQR         0.2100
     62 H28         3.4917   74.0966   -0.8752 H         1 DQR         0.2100
     63 H29         3.7446   67.8251   -4.8341 H         1 DQR         0.2100
     64 H30         6.0004   75.6372   -5.8593 H         1 DQR         0.2095
     65 H31         8.3863   69.0698   -7.5384 H         1 DQR         0.2095
     66 H32         8.0190   77.0779   -4.7584 H         1 DQR         0.2095
@<TRIPOS>BOND
     1    1    4 1  
     2   19    1 1  
     3    1   31 1  
     4    2    5 1  
     5   20    2 1  
     6    6    3 1  
     7    3   21 1  
     8    4    7 1  
     9    4   22 1  
    10    5    8 1  
    11    5   19 1  
    12    5   23 1  
    13    6    9 1  
    14    6   20 1  
    15    6   24 1  
    16    7   10 1  
    17    7   25 1  
    18    8   11 1  
    19    8   26 1  
    20    9   12 1  
    21    9   27 1  
    22   10   13 1  
    23   10   28 1  
    24   11   14 1  
    25   11   29 1  
    26   12   15 1  
    27   12   30 1  
    28   13   16 1  
    29   13   31 1  
    30   14   17 1  
    31   14   23 1  
    32   15   18 1  
    33   15   24 1  
    34   16   34 1  
    35   17   32 1  
    36   18   33 1  
    37    1   35 1  
    38    2   36 1  
    39    2   37 1  
    40    3   38 1  
    41    3   39 1  
    42    4   40 1  
    43    7   41 1  
    44    8   42 1  
    45    9   43 1  
    46   10   44 1  
    47   11   45 1  
    48   12   46 1  
    49   13   47 1  
    50   14   48 1  
    51   15   49 1  
    52   16   50 1  
    53   16   51 1  
    54   17   52 1  
    55   17   53 1  
    56   18   54 1  
    57   18   55 1  
    58   21   56 1  
    59   22   57 1  
    60   25   58 1  
    61   26   59 1  
    62   27   60 1  
    63   28   61 1  
    64   29   62 1  
    65   30   63 1  
    66   32   64 1  
    67   33   65 1  
    68   34   66 1  
@<TRIPOS>SUBSTRUCTURE
     1 DQR         1

