### 
### Created by X-TOOL on Mon Sep 10 21:12:52 2018
### 

@<TRIPOS>MOLECULE
2afw_ligand
   22    22     1     0     0
SMALL
GAST_HUCK


@<TRIPOS>ATOM
      1 C         -10.6340    3.7040   22.2280 C.2       1 AHN         0.1730
      2 O          -9.4450    3.2680   22.3360 O.2       1 AHN        -0.3974
      3 CT        -10.9250    5.0500   21.5860 C.3       1 AHN         0.0257
      4 N         -11.7100    3.0280   22.6420 N.am      1 AHN        -0.2858
      5 CA        -13.0590    3.5540   22.5200 C.3       1 AHN         0.0368
      6 CB        -13.9840    2.5390   21.8030 C.3       1 AHN        -0.0058
      7 CG        -15.4400    2.8980   21.8790 C.2       1 AHN        -0.0052
      8 CD2       -16.0610    4.0820   22.0860 C.2       1 AHN         0.0290
      9 ND1       -16.4430    1.9670   21.7190 N.2       1 AHN        -0.3254
     10 CE1       -17.6210    2.5610   21.8050 C.2       1 AHN         0.0907
     11 NE2       -17.4180    3.8480   22.0270 N.pl3     1 AHN        -0.2752
     12 H1        -12.0096    5.2332   21.5940 H         1 AHN         0.0467
     13 H2        -10.5613    5.0474   20.5479 H         1 AHN         0.0467
     14 H3        -10.4149    5.8439   22.1513 H         1 AHN         0.0467
     15 H4        -11.5817    2.1249   23.0518 H         1 AHN         0.1852
     16 H5        -13.0305    4.4880   21.9396 H         1 AHN         0.0536
     17 H6        -13.4583    3.7584   23.5244 H         1 AHN         0.0536
     18 H7        -13.8441    1.5518   22.2677 H         1 AHN         0.0392
     19 H8        -13.6923    2.4902   20.7435 H         1 AHN         0.0392
     20 H9        -15.5784    5.0415   22.2658 H         1 AHN         0.0729
     21 H10       -18.5905    2.0743   21.7095 H         1 AHN         0.1199
     22 H11       -18.1539    4.5600   22.1378 H         1 AHN         0.2361
@<TRIPOS>BOND
     1    1    2 2  
     2    1    3 1  
     3    1    4 am 
     4    4    5 1  
     5    5    6 1  
     6    6    7 1  
     7    7    8 2  
     8    7    9 1  
     9    8   11 1  
    10    9   10 2  
    11   10   11 1  
    12    3   12 1  
    13    3   13 1  
    14    3   14 1  
    15    4   15 1  
    16    5   16 1  
    17    5   17 1  
    18    6   18 1  
    19    6   19 1  
    20    8   20 1  
    21   10   21 1  
    22   11   22 1  
@<TRIPOS>SUBSTRUCTURE
     1 AHN         1

