### 
### Created by X-TOOL on Mon Sep 10 21:12:52 2018
### 

@<TRIPOS>MOLECULE
2afx_ligand
   22    23     1     0     0
SMALL
GAST_HUCK


@<TRIPOS>ATOM
      1 C1        -15.9250    2.1880   21.7000 C.2       1 1BN         0.0384
      2 C2        -17.1600    2.7060   21.4980 C.2       1 1BN        -0.0234
      3 N1        -15.2190    3.1340   22.4080 N.pl3     1 1BN        -0.2408
      4 C3        -15.9980    4.1790   22.6340 C.2       1 1BN         0.0993
      5 N2        -17.1850    3.9410   22.0900 N.2       1 1BN        -0.3301
      6 C4        -13.9380    2.8800   23.0590 C.3       1 1BN         0.0922
      7 C5        -12.8690    3.8840   22.8220 C.ar      1 1BN        -0.0121
      8 C6        -12.7360    4.5070   21.5830 C.ar      1 1BN        -0.0576
      9 C7        -12.0340    4.2740   23.8620 C.ar      1 1BN        -0.0576
     10 C8        -11.7860    5.5210   21.3840 C.ar      1 1BN        -0.0685
     11 C9        -11.0850    5.2840   23.6760 C.ar      1 1BN        -0.0685
     12 C10       -10.9680    5.9080   22.4270 C.ar      1 1BN        -0.0687
     13 H1        -15.5626    1.2162   21.3682 H         1 1BN         0.0862
     14 H2        -17.9807    2.2292   20.9641 H         1 1BN         0.0444
     15 H3        -15.7138    5.0808   23.1743 H         1 1BN         0.1216
     16 H4        -13.5685    1.9068   22.7036 H         1 1BN         0.0790
     17 H5        -14.1169    2.8306   24.1432 H         1 1BN         0.0790
     18 H6        -13.3750    4.2045   20.7613 H         1 1BN         0.0558
     19 H7        -12.1192    3.7899   24.8282 H         1 1BN         0.0558
     20 H8        -11.6948    5.9985   20.4151 H         1 1BN         0.0599
     21 H9        -10.4418    5.5833   24.4956 H         1 1BN         0.0599
     22 H10       -10.2360    6.6938   22.2796 H         1 1BN         0.0559
@<TRIPOS>BOND
     1    1    2 2  
     2    1    3 1  
     3    2    5 1  
     4    3    4 1  
     5    3    6 1  
     6    4    5 2  
     7    6    7 1  
     8    7    8 ar 
     9    7    9 ar 
    10    8   10 ar 
    11    9   11 ar 
    12   10   12 ar 
    13   11   12 ar 
    14    1   13 1  
    15    2   14 1  
    16    4   15 1  
    17    6   16 1  
    18    6   17 1  
    19    8   18 1  
    20    9   19 1  
    21   10   20 1  
    22   11   21 1  
    23   12   22 1  
@<TRIPOS>SUBSTRUCTURE
     1 1BN         1

