### 
### Created by X-TOOL on Mon Sep 10 21:12:53 2018
### 

@<TRIPOS>MOLECULE
2agv_ligand
   38    38     1     0     0
SMALL
GAST_HUCK


@<TRIPOS>ATOM
      1 O1          7.4130  -13.7920   11.6700 O.3       1 BHQ        -0.3100
      2 O2          1.9460  -13.3450   10.6600 O.3       1 BHQ        -0.3100
      3 C1          6.0640  -13.6700   11.3900 C.ar      1 BHQ         0.1288
      4 C2          5.6440  -13.0110   10.1660 C.ar      1 BHQ        -0.0033
      5 C3          4.2280  -12.9480   10.0000 C.ar      1 BHQ         0.0062
      6 C4          3.2990  -13.4680   10.9300 C.ar      1 BHQ         0.1288
      7 C5          3.7210  -14.1210   12.1430 C.ar      1 BHQ        -0.0033
      8 C6          5.1470  -14.1880   12.3170 C.ar      1 BHQ         0.0062
      9 C7          6.6240  -12.4090    9.0950 C.3       1 BHQ        -0.0387
     10 C8          7.5070  -11.3110    9.7240 C.3       1 BHQ        -0.0825
     11 C9          7.5250  -13.5030    8.5040 C.3       1 BHQ        -0.0825
     12 C10         5.9060  -11.7630    7.8990 C.3       1 BHQ        -0.0825
     13 C11         2.7320  -14.7000   13.1900 C.3       1 BHQ        -0.0387
     14 C12         1.8320  -15.7690   12.5800 C.3       1 BHQ        -0.0825
     15 C13         3.4540  -15.3470   14.3900 C.3       1 BHQ        -0.0825
     16 C14         1.8860  -13.5510   13.7820 C.3       1 BHQ        -0.0825
     17 H1          7.5237  -14.2424   12.4991 H         1 BHQ         0.2606
     18 H2          1.7452  -13.7894    9.8446 H         1 BHQ         0.2606
     19 H3          3.8411  -12.4723    9.1061 H         1 BHQ         0.0776
     20 H4          5.5336  -14.6636   13.2111 H         1 BHQ         0.0776
     21 H5          8.1847  -10.9029    8.9597 H         1 BHQ         0.0140
     22 H6          8.0980  -11.7417   10.5457 H         1 BHQ         0.0140
     23 H7          6.8678  -10.5056   10.1149 H         1 BHQ         0.0140
     24 H8          6.9005  -14.2888    8.0540 H         1 BHQ         0.0140
     25 H9          8.1442  -13.9388    9.3019 H         1 BHQ         0.0140
     26 H10         8.1757  -13.0652    7.7327 H         1 BHQ         0.0140
     27 H11         5.2400  -10.9648    8.2587 H         1 BHQ         0.0140
     28 H12         5.3134  -12.5251    7.3718 H         1 BHQ         0.0140
     29 H13         6.6508  -11.3367    7.2108 H         1 BHQ         0.0140
     30 H14         1.1471  -16.1545   13.3496 H         1 BHQ         0.0140
     31 H15         2.4506  -16.5926   12.1940 H         1 BHQ         0.0140
     32 H16         1.2489  -15.3312   11.7564 H         1 BHQ         0.0140
     33 H17         4.1170  -14.6067   14.8616 H         1 BHQ         0.0140
     34 H18         4.0500  -16.2032   14.0412 H         1 BHQ         0.0140
     35 H19         2.7100  -15.6923   15.1229 H         1 BHQ         0.0140
     36 H20         1.3405  -13.0430   12.9731 H         1 BHQ         0.0140
     37 H21         2.5472  -12.8312   14.2867 H         1 BHQ         0.0140
     38 H22         1.1679  -13.9606   14.5076 H         1 BHQ         0.0140
@<TRIPOS>BOND
     1    3    1 1  
     2    6    2 1  
     3    4    3 ar 
     4    3    8 ar 
     5    5    4 ar 
     6    4    9 1  
     7    5    6 ar 
     8    6    7 ar 
     9    7    8 ar 
    10    7   13 1  
    11    9   10 1  
    12    9   11 1  
    13    9   12 1  
    14   13   14 1  
    15   13   15 1  
    16   13   16 1  
    17    1   17 1  
    18    2   18 1  
    19    5   19 1  
    20    8   20 1  
    21   10   21 1  
    22   10   22 1  
    23   10   23 1  
    24   11   24 1  
    25   11   25 1  
    26   11   26 1  
    27   12   27 1  
    28   12   28 1  
    29   12   29 1  
    30   14   30 1  
    31   14   31 1  
    32   14   32 1  
    33   15   33 1  
    34   15   34 1  
    35   15   35 1  
    36   16   36 1  
    37   16   37 1  
    38   16   38 1  
@<TRIPOS>SUBSTRUCTURE
     1 BHQ         1

