### 
### Created by X-TOOL on Mon Sep 10 21:12:53 2018
### 

@<TRIPOS>MOLECULE
2ai7_ligand
   29    29     1     0     0
SMALL
GAST_HUCK


@<TRIPOS>ATOM
      1 C1         24.9800   -6.1100    9.2400 C.ar      1 SB7        -0.0686
      2 C2         25.4060   -5.5820    7.9920 C.ar      1 SB7        -0.0603
      3 C3         26.1080   -4.3380    7.8960 C.ar      1 SB7        -0.0428
      4 C4         26.3980   -3.5910    9.0700 C.ar      1 SB7        -0.0603
      5 C5         26.0080   -4.0490   10.3380 C.ar      1 SB7        -0.0686
      6 C6         25.2430   -5.4080   10.4300 C.ar      1 SB7        -0.0687
      7 C7         26.5490   -3.7940    6.5610 C.3       1 SB7        -0.0143
      8 C8         27.4790   -4.7550    5.8070 C.3       1 SB7        -0.0017
      9 C11        27.9380   -4.1720    4.4620 C.3       1 SB7         0.0032
     10 N14        29.3020   -3.6480    4.5990 N.4       1 SB7         0.4117
     11 O22        30.4010   -4.4770    4.3780 O.3       1 SB7        -0.3395
     12 C24        29.4600   -2.3460    4.9520 C.3       1 SB7         0.1024
     13 O25        30.7080   -1.7010    5.1310 O.3       1 SB7        -0.3546
     14 H1         24.4513   -7.0557    9.2753 H         1 SB7         0.0599
     15 H2         25.1933   -6.1373    7.0857 H         1 SB7         0.0557
     16 H3         26.9301   -2.6505    8.9844 H         1 SB7         0.0557
     17 H4         26.2317   -3.4750   11.2299 H         1 SB7         0.0599
     18 H5         24.9225   -5.8006   11.3882 H         1 SB7         0.0559
     19 H6         27.0818   -2.8459    6.7260 H         1 SB7         0.0428
     20 H7         25.6572   -3.6108    5.9437 H         1 SB7         0.0428
     21 H8         26.9420   -5.6969    5.6214 H         1 SB7         0.0339
     22 H9         28.3643   -4.9540    6.4288 H         1 SB7         0.0339
     23 H10        27.2604   -3.3584    4.1641 H         1 SB7         0.0827
     24 H11        27.9230   -4.9609    3.6956 H         1 SB7         0.0827
     25 H12        29.3072   -3.3880    3.6251 H         1 SB7         0.2403
     26 H13        31.2012   -3.9817    4.5081 H         1 SB7         0.2696
     27 H14        28.9320   -2.2353    5.9106 H         1 SB7         0.1157
     28 H15        28.9381   -1.7659    4.1767 H         1 SB7         0.1157
     29 H16        30.5626   -0.7947    5.3758 H         1 SB7         0.2151
@<TRIPOS>BOND
     1    1    2 ar 
     2    1    6 ar 
     3    2    3 ar 
     4    3    4 ar 
     5    3    7 1  
     6    4    5 ar 
     7    5    6 ar 
     8    7    8 1  
     9    8    9 1  
    10    9   10 1  
    11   10   11 1  
    12   10   12 1  
    13   12   13 1  
    14    1   14 1  
    15    2   15 1  
    16    4   16 1  
    17    5   17 1  
    18    6   18 1  
    19    7   19 1  
    20    7   20 1  
    21    8   21 1  
    22    8   22 1  
    23    9   23 1  
    24    9   24 1  
    25   10   25 1  
    26   11   26 1  
    27   12   27 1  
    28   12   28 1  
    29   13   29 1  
@<TRIPOS>SUBSTRUCTURE
     1 SB7         1

