### 
### Created by X-TOOL on Mon Sep 10 21:12:53 2018
### 

@<TRIPOS>MOLECULE
2ai8_ligand
   29    29     1     0     0
SMALL
GAST_HUCK


@<TRIPOS>ATOM
      1 C1         46.6420    8.8100   14.2560 C.ar      1 SB7        -0.0686
      2 C2         45.6640    7.7800   14.2430 C.ar      1 SB7        -0.0603
      3 C3         45.8730    6.5200   14.9440 C.ar      1 SB7        -0.0428
      4 C4         47.0760    6.3050   15.6550 C.ar      1 SB7        -0.0603
      5 C5         48.0780    7.2760   15.7010 C.ar      1 SB7        -0.0686
      6 C6         47.8470    8.6200   14.9490 C.ar      1 SB7        -0.0687
      7 C7         44.8440    5.3920   14.9220 C.3       1 SB7        -0.0143
      8 C8         43.5210    5.7570   14.2220 C.3       1 SB7        -0.0017
      9 C11        42.4210    4.6310   14.1450 C.3       1 SB7         0.0032
     10 N14        42.0370    3.8590   15.4280 N.4       1 SB7         0.4117
     11 O22        40.6910    3.7380   15.7990 O.3       1 SB7        -0.3395
     12 C24        42.9970    3.2550   16.1960 C.3       1 SB7         0.1024
     13 O25        42.7530    2.5040   17.3910 O.3       1 SB7        -0.3546
     14 H1         46.4578    9.7407   13.7317 H         1 SB7         0.0599
     15 H2         44.7397    7.9352   13.6983 H         1 SB7         0.0557
     16 H3         47.2235    5.3658   16.1757 H         1 SB7         0.0557
     17 H4         48.9967    7.0983   16.2482 H         1 SB7         0.0599
     18 H5         48.6043    9.3955   14.9608 H         1 SB7         0.0559
     19 H6         44.6181    5.1109   15.9612 H         1 SB7         0.0428
     20 H7         45.2860    4.5322   14.3973 H         1 SB7         0.0428
     21 H8         43.7620    6.0572   13.1916 H         1 SB7         0.0339
     22 H9         43.0848    6.6114   14.7603 H         1 SB7         0.0339
     23 H10        42.7744    3.8866   13.4164 H         1 SB7         0.0827
     24 H11        41.5024    5.1050   13.7688 H         1 SB7         0.0827
     25 H12        42.1225    4.7048   15.9696 H         1 SB7         0.2403
     26 H13        40.6294    3.2384   16.6046 H         1 SB7         0.2696
     27 H14        43.6818    4.0624   16.4943 H         1 SB7         0.1157
     28 H15        43.5189    2.5630   15.5187 H         1 SB7         0.1157
     29 H16        42.1892    1.7661   17.1904 H         1 SB7         0.2151
@<TRIPOS>BOND
     1    1    2 ar 
     2    1    6 ar 
     3    2    3 ar 
     4    3    4 ar 
     5    3    7 1  
     6    4    5 ar 
     7    5    6 ar 
     8    7    8 1  
     9    8    9 1  
    10    9   10 1  
    11   10   11 1  
    12   10   12 1  
    13   12   13 1  
    14    1   14 1  
    15    2   15 1  
    16    4   16 1  
    17    5   17 1  
    18    6   18 1  
    19    7   19 1  
    20    7   20 1  
    21    8   21 1  
    22    8   22 1  
    23    9   23 1  
    24    9   24 1  
    25   10   25 1  
    26   11   26 1  
    27   12   27 1  
    28   12   28 1  
    29   13   29 1  
@<TRIPOS>SUBSTRUCTURE
     1 SB7         1

