### 
### Created by X-TOOL on Mon Sep 10 21:12:53 2018
### 

@<TRIPOS>MOLECULE
2aia_ligand
   39    40     1     0     0
SMALL
GAST_HUCK


@<TRIPOS>ATOM
      1 C1         -4.9100   25.1530   -3.2030 C.ar      1 SB8        -0.0545
      2 C2         -5.7870   25.3700   -2.1060 C.ar      1 SB8         0.0254
      3 C3         -5.2930   26.0020   -0.9390 C.ar      1 SB8        -0.0150
      4 C4         -3.9390   26.4140   -0.8390 C.ar      1 SB8         0.0968
      5 C5         -3.0790   26.1880   -1.9480 C.ar      1 SB8        -0.0286
      6 C6         -3.5630   25.5600   -3.1220 C.ar      1 SB8        -0.0648
      7 C7         -7.1970   24.9340   -2.2050 C.2       1 SB8         0.1580
      8 O8         -8.0960   25.7520   -2.0280 O.2       1 SB8        -0.3671
      9 C9         -7.5330   23.5080   -2.4850 C.ar      1 SB8         0.0340
     10 C10        -6.9660   22.4120   -1.7490 C.ar      1 SB8        -0.0434
     11 C11        -7.3250   21.0810   -2.0570 C.ar      1 SB8        -0.0560
     12 C12        -8.3260   20.8290   -3.1870 C.ar      1 SB8        -0.0573
     13 C13        -8.8550   21.9330   -3.8830 C.ar      1 SB8        -0.0560
     14 C14        -8.4610   23.2450   -3.5350 C.ar      1 SB8        -0.0434
     15 O24        -3.5220   27.0430    0.3650 O.3       1 SB8        -0.3117
     16 C25        -4.4750   27.2260    1.4190 C.3       1 SB8         0.1113
     17 C26        -3.8050   27.9110    2.6120 C.3       1 SB8         0.0298
     18 N29        -3.4270   29.2850    2.2810 N.4       1 SB8         0.4134
     19 O32        -4.4090   30.2820    2.1580 O.3       1 SB8        -0.3394
     20 C34        -2.1070   29.5520    2.1030 C.3       1 SB8         0.1025
     21 O35        -1.6700   30.5360    1.5310 O.3       1 SB8        -0.3546
     22 H1         -5.2775   24.6738   -4.1032 H         1 SB8         0.0576
     23 H2         -5.9633   26.1746   -0.1047 H         1 SB8         0.0592
     24 H3         -2.0421   26.4994   -1.8948 H         1 SB8         0.0580
     25 H4         -2.8960   25.3921   -3.9598 H         1 SB8         0.0601
     26 H5         -6.2579   22.6079   -0.9519 H         1 SB8         0.0670
     27 H6         -6.8990   20.2526   -1.5027 H         1 SB8         0.0630
     28 H7         -8.6223   19.8192   -3.4468 H         1 SB8         0.0654
     29 H8         -9.5653   21.7764   -4.6867 H         1 SB8         0.0630
     30 H9         -8.8788   24.0802   -4.0854 H         1 SB8         0.0670
     31 H10        -4.8651   26.2464    1.7325 H         1 SB8         0.0667
     32 H11        -5.3039   27.8520    1.0570 H         1 SB8         0.0667
     33 H12        -2.9030   27.3468    2.8912 H         1 SB8         0.0852
     34 H13        -4.5059   27.9247    3.4596 H         1 SB8         0.0852
     35 H14        -3.5206   29.0820    1.2981 H         1 SB8         0.2404
     36 H15        -3.9940   31.1087    1.9413 H         1 SB8         0.2696
     37 H16        -1.7026   28.6883    1.5549 H         1 SB8         0.1157
     38 H17        -1.6730   29.5811    3.1133 H         1 SB8         0.1157
     39 H18        -0.7205   30.5051    1.5307 H         1 SB8         0.2151
@<TRIPOS>BOND
     1    1    2 ar 
     2    1    6 ar 
     3    2    3 ar 
     4    2    7 1  
     5    3    4 ar 
     6    4    5 ar 
     7    4   15 1  
     8    5    6 ar 
     9    7    8 2  
    10    7    9 1  
    11    9   10 ar 
    12    9   14 ar 
    13   10   11 ar 
    14   11   12 ar 
    15   12   13 ar 
    16   13   14 ar 
    17   15   16 1  
    18   16   17 1  
    19   17   18 1  
    20   18   19 1  
    21   18   20 1  
    22   20   21 1  
    23    1   22 1  
    24    3   23 1  
    25    5   24 1  
    26    6   25 1  
    27   10   26 1  
    28   11   27 1  
    29   12   28 1  
    30   13   29 1  
    31   14   30 1  
    32   16   31 1  
    33   16   32 1  
    34   17   33 1  
    35   17   34 1  
    36   18   35 1  
    37   19   36 1  
    38   20   37 1  
    39   20   38 1  
    40   21   39 1  
@<TRIPOS>SUBSTRUCTURE
     1 SB8         1

