### 
### Created by X-TOOL on Mon Sep 10 21:12:53 2018
### 

@<TRIPOS>MOLECULE
2aie_ligand
   31    31     1     0     0
SMALL
GAST_HUCK


@<TRIPOS>ATOM
      1 C1         23.8560   -5.2880    8.9670 C.ar      1 SB9         0.0165
      2 N2         24.3230   -4.9200    7.7430 N.ar      1 SB9        -0.2998
      3 C3         25.4540   -4.1500    7.6150 C.ar      1 SB9         0.0197
      4 C4         26.2000   -3.6970    8.7270 C.ar      1 SB9        -0.0401
      5 C5         25.7780   -4.0390   10.0210 C.ar      1 SB9        -0.0561
      6 C6         24.4910   -4.9140   10.1590 C.ar      1 SB9        -0.0404
      7 C7         22.6160   -6.1290    8.9880 C.3       1 SB9        -0.0174
      8 C11        25.8630   -3.8130    6.2060 C.3       1 SB9        -0.0007
      9 C12        26.8510   -4.8250    5.5960 C.3       1 SB9         0.0004
     10 C15        27.5010   -4.3330    4.2900 C.3       1 SB9         0.0035
     11 N18        28.8400   -3.8060    4.5590 N.4       1 SB9         0.4117
     12 O21        29.9280   -4.6730    4.5470 O.3       1 SB9        -0.3395
     13 C23        29.0050   -2.4850    4.8130 C.3       1 SB9         0.1024
     14 O24        30.0810   -1.9490    5.0490 O.3       1 SB9        -0.3546
     15 H1         27.0879   -3.0923    8.5819 H         1 SB9         0.0590
     16 H2         26.3264   -3.7073   10.8952 H         1 SB9         0.0698
     17 H3         24.1088   -5.2163   11.1273 H         1 SB9         0.0590
     18 H4         22.3449   -6.3566   10.0295 H         1 SB9         0.0419
     19 H5         22.7999   -7.0670    8.4437 H         1 SB9         0.0419
     20 H6         21.7929   -5.5808    8.5063 H         1 SB9         0.0419
     21 H7         26.3379   -2.8208    6.2088 H         1 SB9         0.0456
     22 H8         24.9602   -3.7857    5.5782 H         1 SB9         0.0456
     23 H9         26.3086   -5.7585    5.3854 H         1 SB9         0.0342
     24 H10        27.6470   -5.0209    6.3295 H         1 SB9         0.0342
     25 H11        26.8792   -3.5386    3.8515 H         1 SB9         0.0827
     26 H12        27.5762   -5.1722    3.5829 H         1 SB9         0.0827
     27 H13        28.7141   -3.9778    5.5442 H         1 SB9         0.2403
     28 H14        30.7214   -4.1864    4.7374 H         1 SB9         0.2696
     29 H15        28.3716   -2.2716    5.6867 H         1 SB9         0.1157
     30 H16        28.6028   -1.9631    3.9322 H         1 SB9         0.1157
     31 H17        29.9456   -1.0200    5.1945 H         1 SB9         0.2151
@<TRIPOS>BOND
     1    1    2 ar 
     2    1    6 ar 
     3    1    7 1  
     4    2    3 ar 
     5    3    4 ar 
     6    3    8 1  
     7    4    5 ar 
     8    5    6 ar 
     9    8    9 1  
    10    9   10 1  
    11   10   11 1  
    12   11   12 1  
    13   11   13 1  
    14   13   14 1  
    15    4   15 1  
    16    5   16 1  
    17    6   17 1  
    18    7   18 1  
    19    7   19 1  
    20    7   20 1  
    21    8   21 1  
    22    8   22 1  
    23    9   23 1  
    24    9   24 1  
    25   10   25 1  
    26   10   26 1  
    27   11   27 1  
    28   12   28 1  
    29   13   29 1  
    30   13   30 1  
    31   14   31 1  
@<TRIPOS>SUBSTRUCTURE
     1 SB9         1

