### 
### Created by X-TOOL on Mon Sep 10 21:12:54 2018
### 

@<TRIPOS>MOLECULE
2aj8_ligand
   49    52     1     0     0
SMALL
GAST_HUCK


@<TRIPOS>ATOM
      1 N1         -6.2400   22.0100   -0.6990 N.am      1 SC3        -0.1762
      2 C2         -5.2730   22.9530   -0.4650 C.2       1 SC3         0.3173
      3 N3         -4.9740   23.2790    0.8520 N.am      1 SC3        -0.2064
      4 C4         -5.6620   22.6430    1.8550 C.2       1 SC3         0.1165
      5 C5         -6.6170   21.7270    1.6780 C.2       1 SC3         0.1482
      6 C6         -6.9360   21.3690    0.2880 C.2       1 SC3         0.2185
      7 N7         -7.0880   21.3260    2.8570 N.pl3     1 SC3        -0.2228
      8 C8         -6.4250   21.9610    3.8260 C.2       1 SC3         0.2134
      9 N9         -5.5730   22.7620    3.2880 N.2       1 SC3        -0.2875
     10 N10        -6.6580   21.7630    5.1810 N.pl3     1 SC3        -0.2554
     11 C11        -6.0860   22.8510    6.0470 C.3       1 SC3         0.0749
     12 C12        -4.6180   22.5440    6.4110 C.3       1 SC3        -0.0125
     13 N13        -4.4940   21.2630    7.1640 N.4       1 SC3         0.2299
     14 C14        -5.5730   20.2600    6.9490 C.3       1 SC3        -0.0125
     15 C15        -6.2070   20.3620    5.5720 C.3       1 SC3         0.0749
     16 C16        -8.2980   20.5010    3.0460 C.3       1 SC3         0.0856
     17 C17        -8.1070   18.9950    3.0790 C.ar      1 SC3        -0.0146
     18 C18        -9.1970   18.1820    3.4290 C.ar      1 SC3        -0.0578
     19 C19        -9.0400   16.7800    3.4630 C.ar      1 SC3        -0.0685
     20 C20        -7.7810   16.1950    3.1470 C.ar      1 SC3        -0.0687
     21 C21        -6.6800   17.0130    2.7940 C.ar      1 SC3        -0.0685
     22 C22        -6.8350   18.4130    2.7570 C.ar      1 SC3        -0.0578
     23 O23        -7.7850   20.5360    0.0800 O.2       1 SC3        -0.4076
     24 C24        -6.5550   21.6660   -2.0930 C.3       1 SC3         0.0473
     25 O25        -4.6870   23.4910   -1.4050 O.2       1 SC3        -0.3874
     26 C26        -3.9430   24.2780    1.1810 C.3       1 SC3         0.0445
     27 H1         -6.6787   22.9264    6.9706 H         1 SC3         0.0578
     28 H2         -6.1309   23.8062    5.5034 H         1 SC3         0.0578
     29 H3         -4.2260   23.3625    7.0326 H         1 SC3         0.0834
     30 H4         -4.0285   22.4719    5.4851 H         1 SC3         0.0834
     31 H5         -4.4744   21.4859    8.1468 H         1 SC3         0.2015
     32 H6         -3.6207   20.8351    6.8990 H         1 SC3         0.2015
     33 H7         -6.3540   20.4161    7.7077 H         1 SC3         0.0834
     34 H8         -5.1451   19.2533    7.0650 H         1 SC3         0.0834
     35 H9         -5.4710   20.0194    4.8298 H         1 SC3         0.0578
     36 H10        -7.0856   19.7005    5.5496 H         1 SC3         0.0578
     37 H11        -8.9881   20.7300    2.2206 H         1 SC3         0.0760
     38 H12        -8.7566   20.7983    4.0006 H         1 SC3         0.0760
     39 H13       -10.1542   18.6290    3.6718 H         1 SC3         0.0557
     40 H14        -9.8790   16.1477    3.7300 H         1 SC3         0.0599
     41 H15        -7.6645   15.1177    3.1767 H         1 SC3         0.0559
     42 H16        -5.7230   16.5643    2.5535 H         1 SC3         0.0599
     43 H17        -5.9983   19.0470    2.4869 H         1 SC3         0.0557
     44 H18        -5.9200   22.2574   -2.7690 H         1 SC3         0.0539
     45 H19        -7.6130   21.8886   -2.2955 H         1 SC3         0.0539
     46 H20        -6.3676   20.5947   -2.2576 H         1 SC3         0.0539
     47 H21        -3.5066   24.6741    0.2522 H         1 SC3         0.0549
     48 H22        -3.1539   23.8056    1.7844 H         1 SC3         0.0549
     49 H23        -4.3984   25.1005    1.7520 H         1 SC3         0.0549
@<TRIPOS>BOND
     1    1    2 am 
     2    1    6 am 
     3    1   24 1  
     4    2    3 am 
     5    2   25 2  
     6    3    4 1  
     7    3   26 1  
     8    4    5 2  
     9    4    9 1  
    10    5    6 1  
    11    5    7 1  
    12    6   23 2  
    13    7    8 1  
    14    7   16 1  
    15    8    9 2  
    16    8   10 1  
    17   10   11 1  
    18   10   15 1  
    19   11   12 1  
    20   12   13 1  
    21   13   14 1  
    22   14   15 1  
    23   16   17 1  
    24   17   18 ar 
    25   17   22 ar 
    26   18   19 ar 
    27   19   20 ar 
    28   20   21 ar 
    29   21   22 ar 
    30   11   27 1  
    31   11   28 1  
    32   12   29 1  
    33   12   30 1  
    34   13   31 1  
    35   13   32 1  
    36   14   33 1  
    37   14   34 1  
    38   15   35 1  
    39   15   36 1  
    40   16   37 1  
    41   16   38 1  
    42   18   39 1  
    43   19   40 1  
    44   20   41 1  
    45   21   42 1  
    46   22   43 1  
    47   24   44 1  
    48   24   45 1  
    49   24   46 1  
    50   26   47 1  
    51   26   48 1  
    52   26   49 1  
@<TRIPOS>SUBSTRUCTURE
     1 SC3         1

