### 
### Created by X-TOOL on Mon Sep 10 21:12:54 2018
### 

@<TRIPOS>MOLECULE
2ajb_ligand
   58    58     1     0     0
SMALL
GAST_HUCK


@<TRIPOS>ATOM
      1 N          -6.0990   19.4950    7.2280 N.4       1 0QG         0.2383
      2 CA         -6.8320   19.8800    6.0270 C.3       1 0QG         0.0700
      3 CB         -6.3920   21.3060    5.6060 C.3       1 0QG         0.0225
      4 CG1        -4.8890   21.4830    5.3160 C.3       1 0QG        -0.0527
      5 CG2        -6.8080   22.2970    6.7100 C.3       1 0QG        -0.0527
      6 CG3        -7.2150   21.5880    4.3290 C.3       1 0QG        -0.0527
      7 C          -6.5460   18.8790    4.9000 C.2       1 0QG         0.2280
      8 O          -5.4100   18.4980    4.6830 O.2       1 0QG        -0.3906
      9 N          -7.5900   18.4360    4.1840 N.am      1 0QG        -0.2576
     10 CA         -7.4440   17.4730    3.0800 C.3       1 0QG         0.1136
     11 C          -6.9690   18.0450    1.7040 C.3       1 0QG         0.1053
     12 O          -7.8330   18.8560    1.2800 O.3       1 0QG        -0.3507
     13 CB         -8.8310   16.8330    2.9990 C.3       1 0QG        -0.0200
     14 CG         -9.7300   17.9440    3.4290 C.3       1 0QG        -0.0301
     15 CD         -8.9960   18.5210    4.6100 C.3       1 0QG         0.0348
     16 N          -5.6850   18.7340    1.8780 N.4       1 0QG         0.2646
     17 CA         -5.1680   19.6300    0.8390 C.3       1 0QG         0.0353
     18 C          -3.6640   19.4320    0.6520 C.2       1 0QG         0.0848
     19 O          -2.9500   19.3300    1.6720 O.co2     1 0QG        -0.5642
     20 CB         -5.4470   21.1160    1.1710 C.3       1 0QG         0.0111
     21 CG1        -5.3680   21.9600   -0.1010 C.3       1 0QG        -0.0466
     22 CG2        -4.4400   21.6300    2.1870 C.3       1 0QG        -0.0557
     23 CD1        -5.6710   23.4290    0.1200 C.3       1 0QG        -0.0647
     24 OXT        -3.2190   19.3800   -0.5140 O.co2     1 0QG        -0.5642
     25 H1         -6.3786   18.5684    7.5097 H         1 0QG         0.2015
     26 H2         -6.3023   20.1471    7.9693 H         1 0QG         0.2015
     27 H3         -5.1097   19.5033    7.0350 H         1 0QG         0.2015
     28 H4         -7.9108   19.8813    6.2421 H         1 0QG         0.1104
     29 H5         -4.6915   22.5262    5.0284 H         1 0QG         0.0238
     30 H6         -4.5927   20.8139    4.4947 H         1 0QG         0.0238
     31 H7         -4.3099   21.2354    6.2178 H         1 0QG         0.0238
     32 H8         -7.8804   22.1782    6.9243 H         1 0QG         0.0238
     33 H9         -6.6134   23.3255    6.3719 H         1 0QG         0.0238
     34 H10        -6.2273   22.0948    7.6221 H         1 0QG         0.0238
     35 H11        -6.9198   20.8816    3.5391 H         1 0QG         0.0238
     36 H12        -7.0251   22.6171    3.9902 H         1 0QG         0.0238
     37 H13        -8.2859   21.4659    4.5485 H         1 0QG         0.0238
     38 H14        -6.7074   16.7117    3.3765 H         1 0QG         0.0642
     39 H15        -6.8494   17.2229    0.9830 H         1 0QG         0.1208
     40 H16        -7.9370   19.5625    1.9066 H         1 0QG         0.2155
     41 H17        -8.9111   15.9721    3.6790 H         1 0QG         0.0291
     42 H18        -9.0604   16.5118    1.9723 H         1 0QG         0.0291
     43 H19       -10.7191   17.5633    3.7235 H         1 0QG         0.0285
     44 H20        -9.8476   18.6915    2.6306 H         1 0QG         0.0285
     45 H21        -9.2938   19.5641    4.7921 H         1 0QG         0.0522
     46 H22        -9.1730   17.9254    5.5177 H         1 0QG         0.0522
     47 H23        -4.9894   18.0168    2.0114 H         1 0QG         0.2059
     48 H24        -5.7655   19.2845    2.7185 H         1 0QG         0.2059
     49 H25        -5.6743   19.3846   -0.1062 H         1 0QG         0.1028
     50 H26        -6.4581   21.2016    1.5957 H         1 0QG         0.0371
     51 H27        -6.0922   21.5619   -0.8270 H         1 0QG         0.0268
     52 H28        -4.3514   21.8736   -0.5121 H         1 0QG         0.0268
     53 H29        -4.4985   21.0214    3.1014 H         1 0QG         0.0235
     54 H30        -4.6665   22.6787    2.4295 H         1 0QG         0.0235
     55 H31        -3.4263   21.5618    1.7654 H         1 0QG         0.0235
     56 H32        -5.5943   23.9671   -0.8363 H         1 0QG         0.0230
     57 H33        -4.9488   23.8487    0.8358 H         1 0QG         0.0230
     58 H34        -6.6896   23.5370    0.5208 H         1 0QG         0.0230
@<TRIPOS>BOND
     1    1    2 1  
     2    2    3 1  
     3    2    7 1  
     4    3    4 1  
     5    3    5 1  
     6    3    6 1  
     7    7    8 2  
     8    7    9 am 
     9    9   10 1  
    10    9   15 1  
    11   10   11 1  
    12   10   13 1  
    13   11   12 1  
    14   11   16 1  
    15   13   14 1  
    16   14   15 1  
    17   16   17 1  
    18   17   18 1  
    19   17   20 1  
    20   18   19 ar 
    21   18   24 ar 
    22   20   21 1  
    23   20   22 1  
    24   21   23 1  
    25    1   25 1  
    26    1   26 1  
    27    1   27 1  
    28    2   28 1  
    29    4   29 1  
    30    4   30 1  
    31    4   31 1  
    32    5   32 1  
    33    5   33 1  
    34    5   34 1  
    35    6   35 1  
    36    6   36 1  
    37    6   37 1  
    38   10   38 1  
    39   11   39 1  
    40   12   40 1  
    41   13   41 1  
    42   13   42 1  
    43   14   43 1  
    44   14   44 1  
    45   15   45 1  
    46   15   46 1  
    47   16   47 1  
    48   16   48 1  
    49   17   49 1  
    50   20   50 1  
    51   21   51 1  
    52   21   52 1  
    53   22   53 1  
    54   22   54 1  
    55   22   55 1  
    56   23   56 1  
    57   23   57 1  
    58   23   58 1  
@<TRIPOS>SUBSTRUCTURE
     1 0QG         1

