### 
### Created by X-TOOL on Mon Sep 10 21:12:53 2018
### 

@<TRIPOS>MOLECULE
2ajl_ligand
   51    53     1     0     0
SMALL
GAST_HUCK


@<TRIPOS>ATOM
      1 N1        111.4360  -77.8720  -54.5300 N.am      1 JNH        -0.2603
      2 C1        111.8970  -78.6710  -55.6500 C.3       1 JNH         0.0848
      3 C2        112.9700  -77.7680  -56.2170 C.3       1 JNH        -0.0229
      4 C3        112.3440  -76.4060  -56.0210 C.3       1 JNH        -0.0302
      5 C4        111.9190  -76.5330  -54.5830 C.3       1 JNH         0.0347
      6 C5        110.3970  -78.2460  -53.7940 C.2       1 JNH         0.2295
      7 C6        110.2140  -77.3510  -52.5820 C.3       1 JNH         0.0747
      8 O1        109.6850  -79.2100  -54.0640 O.2       1 JNH        -0.3905
      9 N2        108.8180  -76.9090  -52.4810 N.4       1 JNH         0.2394
     10 C7        110.6220  -78.2600  -51.4130 C.3       1 JNH         0.0420
     11 C8        110.0470  -76.7200  -47.3950 C.ar      1 JNH        -0.0242
     12 C9        108.9310  -77.0970  -48.1690 C.ar      1 JNH        -0.0600
     13 C10       109.0960  -77.6010  -49.4730 C.ar      1 JNH        -0.0586
     14 C11       110.4040  -77.7100  -50.0140 C.ar      1 JNH        -0.0343
     15 C12       111.5330  -77.3560  -49.2720 C.ar      1 JNH        -0.0586
     16 C13       111.3320  -76.8610  -47.9780 C.ar      1 JNH        -0.0600
     17 C14       109.6580  -75.1680  -43.4050 C.ar      1 JNH        -0.0627
     18 C15       108.4970  -75.3570  -44.1960 C.ar      1 JNH        -0.0622
     19 C16       108.6260  -75.8780  -45.5180 C.ar      1 JNH        -0.0557
     20 C17       109.9070  -76.2130  -46.0680 C.ar      1 JNH        -0.0221
     21 C18       111.0520  -76.0150  -45.2190 C.ar      1 JNH        -0.0557
     22 C19       110.9380  -75.4980  -43.9040 C.ar      1 JNH        -0.0622
     23 C20       112.4500  -80.0580  -55.5000 C.3       1 JNH        -0.0116
     24 N3        112.4210  -80.8840  -54.5080 N.4       1 JNH         0.2202
     25 H1        111.0587  -78.7581  -56.3568 H         1 JNH         0.0612
     26 H2        113.1523  -77.9781  -57.2812 H         1 JNH         0.0290
     27 H3        113.9126  -77.8622  -55.6579 H         1 JNH         0.0290
     28 H4        111.4854  -76.2488  -56.6903 H         1 JNH         0.0285
     29 H5        113.0732  -75.5948  -56.1633 H         1 JNH         0.0285
     30 H6        112.7701  -76.3885  -53.9012 H         1 JNH         0.0522
     31 H7        111.1253  -75.8125  -54.3365 H         1 JNH         0.0522
     32 H8        110.8708  -76.4704  -52.6372 H         1 JNH         0.1123
     33 H9        108.7109  -76.3162  -51.6728 H         1 JNH         0.2017
     34 H10       108.2168  -77.7129  -52.3900 H         1 JNH         0.2017
     35 H11       108.5676  -76.3943  -53.3107 H         1 JNH         0.2017
     36 H12       111.6941  -78.4812  -51.5210 H         1 JNH         0.0511
     37 H13       110.0447  -79.1925  -51.4984 H         1 JNH         0.0511
     38 H14       107.9340  -76.9977  -47.7553 H         1 JNH         0.0609
     39 H15       108.2342  -77.9024  -50.0574 H         1 JNH         0.0560
     40 H16       112.5303  -77.4609  -49.6837 H         1 JNH         0.0560
     41 H17       112.1988  -76.5721  -47.3947 H         1 JNH         0.0609
     42 H18       109.5625  -74.7647  -42.4034 H         1 JNH         0.0610
     43 H19       107.5193  -75.1078  -43.7998 H         1 JNH         0.0615
     44 H20       107.7361  -76.0237  -46.1196 H         1 JNH         0.0615
     45 H21       112.0351  -76.2699  -45.5980 H         1 JNH         0.0615
     46 H22       111.8203  -75.3578  -43.2900 H         1 JNH         0.0615
     47 H23       113.5232  -79.9360  -55.7079 H         1 JNH         0.0836
     48 H24       111.9787  -80.6181  -56.3211 H         1 JNH         0.0836
     49 H25       112.8982  -81.7340  -54.7645 H         1 JNH         0.1995
     50 H26       111.4634  -81.0940  -54.2735 H         1 JNH         0.1995
     51 H27       112.8788  -80.4689  -53.7116 H         1 JNH         0.1995
@<TRIPOS>BOND
     1    1    2 1  
     2    1    5 1  
     3    6    1 am 
     4    2    3 1  
     5    2   23 1  
     6    4    3 1  
     7    5    4 1  
     8    7    6 1  
     9    6    8 2  
    10    7    9 1  
    11   10    7 1  
    12   14   10 1  
    13   11   12 ar 
    14   11   16 ar 
    15   20   11 1  
    16   12   13 ar 
    17   13   14 ar 
    18   15   14 ar 
    19   16   15 ar 
    20   18   17 ar 
    21   17   22 ar 
    22   19   18 ar 
    23   19   20 ar 
    24   20   21 ar 
    25   21   22 ar 
    26   23   24 1  
    27    2   25 1  
    28    3   26 1  
    29    3   27 1  
    30    4   28 1  
    31    4   29 1  
    32    5   30 1  
    33    5   31 1  
    34    7   32 1  
    35    9   33 1  
    36    9   34 1  
    37    9   35 1  
    38   10   36 1  
    39   10   37 1  
    40   12   38 1  
    41   13   39 1  
    42   15   40 1  
    43   16   41 1  
    44   17   42 1  
    45   18   43 1  
    46   19   44 1  
    47   21   45 1  
    48   22   46 1  
    49   23   47 1  
    50   23   48 1  
    51   24   49 1  
    52   24   50 1  
    53   24   51 1  
@<TRIPOS>SUBSTRUCTURE
     1 JNH         1

