### 
### Created by X-TOOL on Mon Sep 10 21:12:52 2018
### 

@<TRIPOS>MOLECULE
2al5_ligand
   23    23     1     0     0
SMALL
GAST_HUCK


@<TRIPOS>ATOM
      1 N1         20.6200   61.7740   28.7660 N.am      1 FWD        -0.1864
      2 C2         21.1390   61.6000   27.4630 C.2       1 FWD         0.3276
      3 O2         20.4630   61.5270   26.4690 O.2       1 FWD        -0.3831
      4 N3         22.5480   61.5090   27.4200 N.am      1 FWD        -0.1843
      5 C4         23.4370   61.5780   28.4750 C.2       1 FWD         0.2212
      6 O4         24.6420   61.4710   28.3450 O.2       1 FWD        -0.4071
      7 C5         22.7720   61.7620   29.8090 C.2       1 FWD         0.1930
      8 F5         23.5570   61.8630   30.9020 F         1 FWD        -0.2165
      9 C6         21.4210   61.8750   29.8600 C.2       1 FWD         0.0856
     10 C7         19.1740   61.9480   28.9370 C.3       1 FWD         0.1179
     11 C8         18.6210   63.2550   28.3840 C.3       1 FWD         0.0561
     12 N8         18.9270   64.3890   29.3200 N.4       1 FWD         0.2346
     13 C9         17.1310   63.2100   28.0560 C.2       1 FWD         0.0872
     14 O91        16.4070   64.0560   28.5290 O.co2     1 FWD        -0.5642
     15 O92        16.7790   62.2140   27.3260 O.co2     1 FWD        -0.5642
     16 H1         22.9515   61.3786   26.5144 H         1 FWD         0.2260
     17 H2         20.9540   62.0559   30.8270 H         1 FWD         0.1106
     18 H3         18.9489   61.9087   30.0130 H         1 FWD         0.0687
     19 H4         18.6659   61.1172   28.4255 H         1 FWD         0.0687
     20 H5         19.1493   63.4522   27.4396 H         1 FWD         0.1052
     21 H6         18.5556   65.2464   28.9418 H         1 FWD         0.2011
     22 H7         19.9254   64.4746   29.4291 H         1 FWD         0.2011
     23 H8         18.5053   64.2072   30.2173 H         1 FWD         0.2011
@<TRIPOS>BOND
     1    1    2 am 
     2    1    9 1  
     3    1   10 1  
     4    2    3 2  
     5    2    4 am 
     6    4    5 am 
     7    5    6 2  
     8    5    7 1  
     9    7    8 1  
    10    7    9 2  
    11   10   11 1  
    12   11   12 1  
    13   11   13 1  
    14   13   14 ar 
    15   13   15 ar 
    16    4   16 1  
    17    9   17 1  
    18   10   18 1  
    19   10   19 1  
    20   11   20 1  
    21   12   21 1  
    22   12   22 1  
    23   12   23 1  
@<TRIPOS>SUBSTRUCTURE
     1 FWD         1

