### 
### Created by X-TOOL on Mon Sep 10 21:12:55 2018
### 

@<TRIPOS>MOLECULE
2alv_ligand
   82    83     1     0     0
SMALL
GAST_HUCK


@<TRIPOS>ATOM
      1 C5         73.3760   47.7140   18.4330 C.3       1 CY6         0.0097
      2 C6         72.8930   46.2990   18.6050 C.2       1 CY6         0.1392
      3 O7         71.9590   45.8240   17.7670 O.3       1 CY6        -0.1606
      4 N8         71.7080   44.4820   18.1770 N.2       1 CY6        -0.1328
      5 C9         72.4860   44.2900   19.1810 C.2       1 CY6         0.1131
      6 C10        73.3040   45.4570   19.5210 C.2       1 CY6        -0.0165
      7 C11        72.5940   43.0470   19.9540 C.2       1 CY6         0.2113
      8 O12        73.0910   42.0800   19.3140 O.2       1 CY6        -0.3853
      9 N13        72.2270   42.9390   21.2720 N.am      1 CY6        -0.2658
     10 C14        72.3260   41.7740   22.1820 C.3       1 CY6         0.1169
     11 C15        72.1330   42.1430   23.7530 C.3       1 CY6        -0.0074
     12 C16        72.2900   40.9620   24.7780 C.3       1 CY6        -0.0584
     13 C17        70.7360   42.8150   24.0190 C.3       1 CY6        -0.0584
     14 C18        71.3590   40.6490   21.7020 C.2       1 CY6         0.1331
     15 O19        70.1250   40.8390   21.5470 O.2       1 CY6        -0.3890
     16 C20        72.0130   39.2830   21.4870 C.3       1 CY6         0.0442
     17 C21        71.1410   38.0200   21.0920 C.3       1 CY6         0.0676
     18 C22        72.1390   36.8100   20.9160 C.3       1 CY6        -0.0252
     19 C23        73.0630   37.0400   19.7340 C.2       1 CY6        -0.1066
     20 C24        74.1020   36.0980   19.3790 C.2       1 CY6        -0.0870
     21 C25        74.6740   36.1150   18.0000 C.3       1 CY6        -0.0406
     22 C26        74.6400   35.1100   20.3920 C.3       1 CY6        -0.0406
     23 C29        70.2140   37.7990   22.3190 C.2       1 CY6         0.1854
     24 O30        70.7080   38.0510   23.4970 O.2       1 CY6        -0.3962
     25 N31        68.9190   37.3770   22.1920 N.am      1 CY6        -0.2678
     26 C32        68.1000   37.2110   23.3980 C.3       1 CY6         0.0827
     27 C33        67.5730   35.8690   23.8530 C.2       1 CY6        -0.0326
     28 C34        68.8440   35.0260   24.2700 C.2       1 CY6         0.0114
     29 C35        68.5470   33.6490   24.9040 C.2       1 CY6         0.2333
     30 O36        67.3640   33.2810   25.0880 O.2       1 CY6        -0.3745
     31 O37        69.5250   32.7600   25.3300 O.3       1 CY6        -0.2834
     32 C38        70.3680   33.0850   26.4740 C.3       1 CY6         0.0720
     33 C39        69.8230   32.5050   27.8090 C.3       1 CY6        -0.0373
     34 C40        66.8980   38.2280   23.3800 C.3       1 CY6         0.0038
     35 C41        66.9220   39.3590   24.4470 C.3       1 CY6         0.0551
     36 C42        67.1800   39.0330   25.9450 C.3       1 CY6        -0.0127
     37 C43        66.7700   40.3700   26.6240 C.3       1 CY6         0.0332
     38 N44        65.6080   40.7100   25.7960 N.am      1 CY6        -0.2866
     39 C45        65.6540   40.1510   24.5640 C.2       1 CY6         0.1794
     40 O46        64.8130   40.2570   23.6380 O.2       1 CY6        -0.3968
     41 H1         74.1346   47.9379   19.1974 H         1 CY6         0.0449
     42 H2         72.5287   48.4067   18.5434 H         1 CY6         0.0449
     43 H3         73.8178   47.8316   17.4325 H         1 CY6         0.0449
     44 H4         74.0430   45.5875   20.3102 H         1 CY6         0.0312
     45 H5         71.8364   43.7659   21.6765 H         1 CY6         0.1878
     46 H6         73.3489   41.3816   22.0838 H         1 CY6         0.0794
     47 H7         72.9142   42.8796   23.9920 H         1 CY6         0.0343
     48 H8         72.1370   41.3403   25.7995 H         1 CY6         0.0235
     49 H9         73.2999   40.5344   24.6929 H         1 CY6         0.0235
     50 H10        71.5430   40.1848   24.5591 H         1 CY6         0.0235
     51 H11        70.5909   43.6494   23.3170 H         1 CY6         0.0235
     52 H12        70.7020   43.1940   25.0511 H         1 CY6         0.0235
     53 H13        69.9381   42.0716   23.8749 H         1 CY6         0.0235
     54 H14        72.5256   39.0290   22.4265 H         1 CY6         0.0524
     55 H15        72.7567   39.4135   20.6871 H         1 CY6         0.0524
     56 H16        70.5593   38.1858   20.1733 H         1 CY6         0.0578
     57 H17        71.5623   35.8884   20.7487 H         1 CY6         0.0368
     58 H18        72.7422   36.7043   21.8298 H         1 CY6         0.0368
     59 H19        72.9401   37.9412   19.1352 H         1 CY6         0.0244
     60 H20        75.4454   35.3356   17.9134 H         1 CY6         0.0375
     61 H21        75.1234   37.0992   17.8015 H         1 CY6         0.0375
     62 H22        73.8748   35.9227   17.2691 H         1 CY6         0.0375
     63 H23        74.1079   35.2370   21.3463 H         1 CY6         0.0375
     64 H24        75.7144   35.2896   20.5446 H         1 CY6         0.0375
     65 H25        74.4885   34.0855   20.0212 H         1 CY6         0.0375
     66 H26        68.5355   37.1841   21.2888 H         1 CY6         0.1892
     67 H27        68.7681   37.5268   24.2128 H         1 CY6         0.0787
     68 H28        66.5326   35.5490   23.8866 H         1 CY6         0.0877
     69 H29        69.8591   35.3910   24.1205 H         1 CY6         0.0485
     70 H30        70.4293   34.1795   26.5656 H         1 CY6         0.0607
     71 H31        71.3733   32.6750   26.2973 H         1 CY6         0.0607
     72 H32        70.4983   32.7820   28.6319 H         1 CY6         0.0255
     73 H33        69.7645   31.4090   27.7359 H         1 CY6         0.0255
     74 H34        68.8205   32.9135   28.0041 H         1 CY6         0.0255
     75 H35        65.9723   37.6521   23.5260 H         1 CY6         0.0346
     76 H36        66.8805   38.7054   22.3891 H         1 CY6         0.0346
     77 H37        67.7253   40.0336   24.1160 H         1 CY6         0.0541
     78 H38        68.2383   38.7962   26.1289 H         1 CY6         0.0312
     79 H39        66.5522   38.1978   26.2891 H         1 CY6         0.0312
     80 H40        67.5632   41.1286   26.5506 H         1 CY6         0.0521
     81 H41        66.4952   40.2277   27.6796 H         1 CY6         0.0521
     82 H42        64.8593   41.2943   26.1092 H         1 CY6         0.1851
@<TRIPOS>BOND
     1    1    2 1  
     2    2    3 1  
     3    2    6 2  
     4    3    4 1  
     5    4    5 2  
     6    5    6 1  
     7    5    7 1  
     8    7    8 2  
     9    7    9 am 
    10    9   10 1  
    11   10   11 1  
    12   10   14 1  
    13   11   12 1  
    14   11   13 1  
    15   14   15 2  
    16   14   16 1  
    17   16   17 1  
    18   17   18 1  
    19   17   23 1  
    20   18   19 1  
    21   19   20 2  
    22   20   21 1  
    23   20   22 1  
    24   23   24 2  
    25   23   25 am 
    26   25   26 1  
    27   26   27 1  
    28   26   34 1  
    29   27   28 2  
    30   28   29 1  
    31   29   30 2  
    32   29   31 1  
    33   31   32 1  
    34   32   33 1  
    35   34   35 1  
    36   35   36 1  
    37   35   39 1  
    38   36   37 1  
    39   37   38 1  
    40   38   39 am 
    41   39   40 2  
    42    1   41 1  
    43    1   42 1  
    44    1   43 1  
    45    6   44 1  
    46    9   45 1  
    47   10   46 1  
    48   11   47 1  
    49   12   48 1  
    50   12   49 1  
    51   12   50 1  
    52   13   51 1  
    53   13   52 1  
    54   13   53 1  
    55   16   54 1  
    56   16   55 1  
    57   17   56 1  
    58   18   57 1  
    59   18   58 1  
    60   19   59 1  
    61   21   60 1  
    62   21   61 1  
    63   21   62 1  
    64   22   63 1  
    65   22   64 1  
    66   22   65 1  
    67   25   66 1  
    68   26   67 1  
    69   27   68 1  
    70   28   69 1  
    71   32   70 1  
    72   32   71 1  
    73   33   72 1  
    74   33   73 1  
    75   33   74 1  
    76   34   75 1  
    77   34   76 1  
    78   35   77 1  
    79   36   78 1  
    80   36   79 1  
    81   37   80 1  
    82   37   81 1  
    83   38   82 1  
@<TRIPOS>SUBSTRUCTURE
     1 CY6         1

