### 
### Created by X-TOOL on Mon Sep 10 21:12:55 2018
### 

@<TRIPOS>MOLECULE
2am1_ligand
   50    53     1     0     0
SMALL
GAST_HUCK


@<TRIPOS>ATOM
      1 C4         11.5680   46.4530   55.3810 C.3       1 1LG        -0.0401
      2 C5         14.6700   44.8410   53.8220 C.2       1 1LG         0.1699
      3 C6         14.3680   45.4210   56.1870 C.1       1 1LG         0.0356
      4 C8         10.9550   46.1540   52.4260 C.3       1 1LG        -0.0246
      5 C13        16.5720   43.7390   52.8740 C.2       1 1LG         0.2464
      6 C17        18.3420   42.3170   54.1080 C.ar      1 1LG         0.0617
      7 C22        20.6910   42.5100   53.3390 C.ar      1 1LG         0.0719
      8 C28        23.4070   43.3850   49.5310 C.3       1 1LG         0.0531
      9 C1         12.5640   45.8460   54.4010 C.2       1 1LG        -0.0560
     10 C2         13.9060   45.3520   54.8150 C.2       1 1LG         0.0889
     11 C3         12.2740   45.7120   53.0500 C.2       1 1LG        -0.0034
     12 S7         13.7060   44.9740   52.3510 S.3       1 1LG        -0.0039
     13 C9         10.1030   46.3400   54.8910 C.3       1 1LG        -0.0474
     14 N10        15.9320   44.3280   53.9170 N.am      1 1LG        -0.2018
     15 N11        14.7370   45.4690   57.2830 N.1       1 1LG        -0.3857
     16 C12         9.9650   46.8500   53.4210 C.3       1 1LG        -0.0457
     17 C14        17.9550   43.2620   53.0860 C.ar      1 1LG         0.0746
     18 O15        16.0510   43.6290   51.7450 O.2       1 1LG        -0.3665
     19 C16        18.9260   43.7920   52.2170 C.ar      1 1LG        -0.0138
     20 C18        20.2710   43.4330   52.3300 C.ar      1 1LG         0.1278
     21 C19        19.7220   41.9520   54.2280 C.ar      1 1LG        -0.0265
     22 CL20       17.1920   41.6230   55.2020 Cl        1 1LG        -0.0648
     23 S21        21.4620   44.1650   51.1550 S.o2      1 1LG         0.0722
     24 N23        22.3910   42.8510   50.4710 N.am      1 1LG        -0.2296
     25 O24        22.3510   45.0410   51.8710 O.2       1 1LG        -0.1500
     26 O25        20.7710   44.8860   50.1300 O.2       1 1LG        -0.1500
     27 CL26       22.3770   42.0700   53.4870 Cl        1 1LG        -0.0646
     28 C27        21.4890   41.9180   49.7510 C.3       1 1LG         0.0531
     29 C29        22.3170   40.7510   49.1590 C.3       1 1LG         0.0647
     30 C30        24.2350   42.2250   48.9220 C.3       1 1LG         0.0647
     31 O31        23.7390   40.9410   49.3770 O.3       1 1LG        -0.3766
     32 H1         11.8123   47.5168   55.5176 H         1 1LG         0.0351
     33 H2         11.6583   45.9294   56.3442 H         1 1LG         0.0351
     34 H3         10.4566   45.2655   52.0112 H         1 1LG         0.0377
     35 H4         11.1793   46.8613   51.6139 H         1 1LG         0.0377
     36 H5         24.0798   44.0666   50.0720 H         1 1LG         0.0501
     37 H6         22.9014   43.9338   48.7228 H         1 1LG         0.0501
     38 H7          9.4573   46.9453   55.5441 H         1 1LG         0.0281
     39 H8          9.7880   45.2871   54.9378 H         1 1LG         0.0281
     40 H9         16.4068   44.3888   54.7950 H         1 1LG         0.2444
     41 H10         8.9366   46.6589   53.0807 H         1 1LG         0.0283
     42 H11        10.1605   47.9324   53.4076 H         1 1LG         0.0283
     43 H12        18.6249   44.4917   51.4457 H         1 1LG         0.0688
     44 H13        20.0315   41.2511   54.9948 H         1 1LG         0.0641
     45 H14        20.9796   42.4554   48.9375 H         1 1LG         0.0501
     46 H15        20.7408   41.5181   50.4512 H         1 1LG         0.0501
     47 H16        22.1266   40.6908   48.0773 H         1 1LG         0.0576
     48 H17        22.0046   39.8119   49.6391 H         1 1LG         0.0576
     49 H18        25.2861   42.3337   49.2274 H         1 1LG         0.0576
     50 H19        24.1653   42.2698   47.8251 H         1 1LG         0.0576
@<TRIPOS>BOND
     1    9    1 1  
     2    1   13 1  
     3    2   10 2  
     4    2   12 1  
     5   14    2 1  
     6   10    3 1  
     7    3   15 3  
     8   11    4 1  
     9    4   16 1  
    10    5   14 am 
    11   17    5 1  
    12    5   18 2  
    13   17    6 ar 
    14   21    6 ar 
    15    6   22 1  
    16   20    7 ar 
    17    7   21 ar 
    18    7   27 1  
    19   24    8 1  
    20    8   30 1  
    21   10    9 1  
    22   11    9 2  
    23   12   11 1  
    24   16   13 1  
    25   19   17 ar 
    26   20   19 ar 
    27   23   20 1  
    28   23   24 am 
    29   23   25 2  
    30   23   26 2  
    31   24   28 1  
    32   28   29 1  
    33   29   31 1  
    34   30   31 1  
    35    1   32 1  
    36    1   33 1  
    37    4   34 1  
    38    4   35 1  
    39    8   36 1  
    40    8   37 1  
    41   13   38 1  
    42   13   39 1  
    43   14   40 1  
    44   16   41 1  
    45   16   42 1  
    46   19   43 1  
    47   21   44 1  
    48   28   45 1  
    49   28   46 1  
    50   29   47 1  
    51   29   48 1  
    52   30   49 1  
    53   30   50 1  
@<TRIPOS>SUBSTRUCTURE
     1 1LG         1

