### 
### Created by X-TOOL on Mon Sep 10 21:12:55 2018
### 

@<TRIPOS>MOLECULE
2am2_ligand
   48    50     1     0     0
SMALL
GAST_HUCK


@<TRIPOS>ATOM
      1 C4         11.9860   46.5450   55.9120 C.3       1 2LG        -0.0389
      2 C6         11.4760   46.4450   53.6050 C.3       1 2LG        -0.0235
      3 C7         15.1220   44.7260   54.5920 C.2       1 2LG         0.1700
      4 C8         14.8400   45.2570   56.9680 C.1       1 2LG         0.0356
      5 C13        18.2250   42.7950   53.9370 C.ar      1 2LG         0.0746
      6 C15        19.2600   43.3190   53.1500 C.ar      1 2LG        -0.0142
      7 C17        20.5750   42.8510   53.2700 C.ar      1 2LG         0.1139
      8 C21        20.8880   41.8250   54.1980 C.ar      1 2LG        -0.0304
      9 C26        22.3220   41.3530   50.7970 C.3       1 2LG         0.0268
     10 C28        21.5470   41.8520   49.5700 C.3       1 2LG        -0.0480
     11 C1         13.1010   45.8600   55.1740 C.2       1 2LG        -0.0559
     12 C2         12.8120   45.8030   53.8720 C.2       1 2LG        -0.0033
     13 C3         14.3910   45.2640   55.5810 C.2       1 2LG         0.0889
     14 S5         14.1810   44.9820   53.1210 S.3       1 2LG        -0.0039
     15 C9         10.7810   46.4570   54.9660 C.3       1 2LG        -0.0425
     16 N10        16.3430   44.1090   54.7050 N.am      1 2LG        -0.2018
     17 N11        15.2050   45.2590   58.0750 N.1       1 2LG        -0.3857
     18 C12        16.8900   43.3680   53.7300 C.2       1 2LG         0.2464
     19 O14        16.3290   43.1970   52.6520 O.2       1 2LG        -0.3664
     20 C16        18.5080   41.7510   54.8950 C.ar      1 2LG         0.0613
     21 C18        19.8520   41.2730   55.0120 C.ar      1 2LG        -0.0404
     22 CL19       17.2650   41.0630   55.9150 Cl        1 2LG        -0.0647
     23 S20        21.8400   43.6260   52.2040 S.o2      1 2LG         0.0716
     24 N22        23.0150   42.4590   51.6020 N.am      1 2LG        -0.2345
     25 O23        22.5550   44.5900   52.9760 O.2       1 2LG        -0.1500
     26 O24        21.1950   44.3070   51.1160 O.2       1 2LG        -0.1500
     27 C25        23.9890   43.2380   50.7450 C.3       1 2LG         0.0268
     28 C27        25.1080   42.3720   50.1430 C.3       1 2LG        -0.0480
     29 H1         12.2432   47.5949   56.1159 H         1 2LG         0.0352
     30 H2         11.7735   46.0288   56.8598 H         1 2LG         0.0352
     31 H3         10.8987   45.8545   52.8784 H         1 2LG         0.0378
     32 H4         11.6053   47.4692   53.2250 H         1 2LG         0.0378
     33 H5         19.0383   44.1022   52.4341 H         1 2LG         0.0689
     34 H6         21.9056   41.4625   54.2888 H         1 2LG         0.0671
     35 H7         23.0903   40.6446   50.4538 H         1 2LG         0.0475
     36 H8         21.6160   40.8344   51.4622 H         1 2LG         0.0475
     37 H9         21.0849   40.9966   49.0554 H         1 2LG         0.0245
     38 H10        22.2374   42.3636   48.8833 H         1 2LG         0.0245
     39 H11        20.7631   42.5534   49.8917 H         1 2LG         0.0245
     40 H12        10.1191   47.3289   55.0734 H         1 2LG         0.0297
     41 H13        10.2037   45.5356   55.1324 H         1 2LG         0.0297
     42 H14        16.8514   44.2177   55.5592 H         1 2LG         0.2444
     43 H15        20.0850   40.4879   55.7221 H         1 2LG         0.0635
     44 H16        24.4504   44.0200   51.3660 H         1 2LG         0.0475
     45 H17        23.4302   43.7061   49.9212 H         1 2LG         0.0475
     46 H18        25.7736   43.0031   49.5359 H         1 2LG         0.0245
     47 H19        24.6654   41.5898   49.5088 H         1 2LG         0.0245
     48 H20        25.6855   41.9037   50.9536 H         1 2LG         0.0245
@<TRIPOS>BOND
     1   11    1 1  
     2    1   15 1  
     3   12    2 1  
     4    2   15 1  
     5    3   13 2  
     6    3   14 1  
     7   16    3 1  
     8   13    4 1  
     9    4   17 3  
    10    6    5 ar 
    11    5   18 1  
    12    5   20 ar 
    13    7    6 ar 
    14    7    8 ar 
    15   23    7 1  
    16    8   21 ar 
    17    9   10 1  
    18   24    9 1  
    19   12   11 2  
    20   13   11 1  
    21   14   12 1  
    22   18   16 am 
    23   18   19 2  
    24   21   20 ar 
    25   20   22 1  
    26   23   24 am 
    27   23   25 2  
    28   23   26 2  
    29   24   27 1  
    30   27   28 1  
    31    1   29 1  
    32    1   30 1  
    33    2   31 1  
    34    2   32 1  
    35    6   33 1  
    36    8   34 1  
    37    9   35 1  
    38    9   36 1  
    39   10   37 1  
    40   10   38 1  
    41   10   39 1  
    42   15   40 1  
    43   15   41 1  
    44   16   42 1  
    45   21   43 1  
    46   27   44 1  
    47   27   45 1  
    48   28   46 1  
    49   28   47 1  
    50   28   48 1  
@<TRIPOS>SUBSTRUCTURE
     1 2LG         1

