### 
### Created by X-TOOL on Mon Sep 10 21:12:54 2018
### 

@<TRIPOS>MOLECULE
2am9_ligand
   51    54     1     0     0
SMALL
GAST_HUCK


@<TRIPOS>ATOM
      1 C1         26.9610    5.2750    4.7480 C.3       1 TES        -0.0856
      2 C2         26.0870    6.5150    5.0500 C.3       1 TES        -0.0128
      3 C3         24.7140    6.3800    4.4550 C.3       1 TES         0.1271
      4 O3         24.0440    7.4060    3.9390 O.3       1 TES        -0.3597
      5 C4         24.1250    5.0470    4.4570 C.2       1 TES         0.0154
      6 C5         24.8080    3.9090    4.8030 C.2       1 TES        -0.0645
      7 C6         24.0890    2.5690    4.7900 C.3       1 TES        -0.0279
      8 C7         24.8770    1.4740    4.0590 C.3       1 TES        -0.0429
      9 C8         26.3060    1.3630    4.6670 C.3       1 TES        -0.0455
     10 C9         27.0680    2.7200    4.5650 C.3       1 TES        -0.0773
     11 C10        26.3230    3.9250    5.2440 C.3       1 TES        -0.0669
     12 C11        28.5550    2.7000    5.0980 C.3       1 TES        -0.0618
     13 C12        29.3370    1.5340    4.4490 C.3       1 TES        -0.0459
     14 C13        28.6170    0.1640    4.6020 C.3       1 TES        -0.0031
     15 C14        27.1900    0.2970    3.9730 C.3       1 TES        -0.0312
     16 C15        26.6680   -1.1630    3.8940 C.3       1 TES        -0.0471
     17 C16        27.9500   -1.9990    3.6690 C.3       1 TES        -0.0261
     18 C17        29.1270   -0.9850    3.6840 C.3       1 TES         0.0609
     19 O17        30.3270   -1.5900    4.2060 O.3       1 TES        -0.3912
     20 C18        28.5870   -0.2730    6.1200 C.3       1 TES        -0.0569
     21 C19        26.3440    3.8460    6.7980 C.3       1 TES        -0.1044
     22 H1         27.9336    5.4044    5.2453 H         1 TES         0.0108
     23 H2         27.1111    5.2107    3.6602 H         1 TES         0.0108
     24 H3         26.5734    7.4065    4.6274 H         1 TES         0.0333
     25 H4         25.9943    6.6299    6.1400 H         1 TES         0.0333
     26 H5         24.2653    6.5944    5.4362 H         1 TES         0.1015
     27 H6         23.9115    8.0657    4.6096 H         1 TES         0.2177
     28 H7         23.0801    4.9486    4.1664 H         1 TES         0.1494
     29 H8         23.1183    2.6966    4.2885 H         1 TES         0.0403
     30 H9         23.9254    2.2487    5.8295 H         1 TES         0.0403
     31 H10        24.9524    1.7282    2.9914 H         1 TES         0.0288
     32 H11        24.3561    0.5117    4.1709 H         1 TES         0.0288
     33 H12        26.1983    1.0914    5.7275 H         1 TES         0.0295
     34 H13        27.1230    2.9448    3.4896 H         1 TES         0.0143
     35 H14        28.5482    2.5700    6.1903 H         1 TES         0.0256
     36 H15        29.0449    3.6518    4.8451 H         1 TES         0.0256
     37 H16        30.3259    1.4660    4.9259 H         1 TES         0.0271
     38 H17        29.4607    1.7478    3.3771 H         1 TES         0.0271
     39 H18        27.3078    0.6505    2.9380 H         1 TES         0.0309
     40 H19        25.9681   -1.2845    3.0541 H         1 TES         0.0269
     41 H20        26.1702   -1.4529    4.8311 H         1 TES         0.0269
     42 H21        27.9038   -2.5173    2.6999 H         1 TES         0.0290
     43 H22        28.0713   -2.7380    4.4747 H         1 TES         0.0290
     44 H23        29.3264   -0.6082    2.6700 H         1 TES         0.0599
     45 H24        31.0294   -0.9503    4.2043 H         1 TES         0.2098
     46 H25        28.2223    0.5629    6.7350 H         1 TES         0.0236
     47 H26        29.6017   -0.5497    6.4421 H         1 TES         0.0236
     48 H27        27.9160   -1.1364    6.2399 H         1 TES         0.0236
     49 H28        25.8099    4.7118    7.2164 H         1 TES         0.0068
     50 H29        27.3856    3.8520    7.1514 H         1 TES         0.0068
     51 H30        25.8512    2.9184    7.1247 H         1 TES         0.0068
@<TRIPOS>BOND
     1    1    2 1  
     2    1   11 1  
     3    2    3 1  
     4    3    4 1  
     5    3    5 1  
     6    5    6 2  
     7    6    7 1  
     8    6   11 1  
     9    7    8 1  
    10    8    9 1  
    11    9   10 1  
    12    9   15 1  
    13   10   11 1  
    14   10   12 1  
    15   11   21 1  
    16   12   13 1  
    17   13   14 1  
    18   14   15 1  
    19   14   18 1  
    20   14   20 1  
    21   15   16 1  
    22   16   17 1  
    23   17   18 1  
    24   18   19 1  
    25    1   22 1  
    26    1   23 1  
    27    2   24 1  
    28    2   25 1  
    29    3   26 1  
    30    4   27 1  
    31    5   28 1  
    32    7   29 1  
    33    7   30 1  
    34    8   31 1  
    35    8   32 1  
    36    9   33 1  
    37   10   34 1  
    38   12   35 1  
    39   12   36 1  
    40   13   37 1  
    41   13   38 1  
    42   15   39 1  
    43   16   40 1  
    44   16   41 1  
    45   17   42 1  
    46   17   43 1  
    47   18   44 1  
    48   19   45 1  
    49   20   46 1  
    50   20   47 1  
    51   20   48 1  
    52   21   49 1  
    53   21   50 1  
    54   21   51 1  
@<TRIPOS>SUBSTRUCTURE
     1 TES         1

