### 
### Created by X-TOOL on Mon Sep 10 21:12:54 2018
### 

@<TRIPOS>MOLECULE
2ama_ligand
   51    54     1     0     0
SMALL
GAST_HUCK


@<TRIPOS>ATOM
      1 C1         27.3330    5.1460    4.3910 C.3       1 DHT        -0.0310
      2 C2         26.4290    6.3160    4.8430 C.3       1 DHT         0.0216
      3 C3         24.9960    6.0700    4.2170 C.2       1 DHT         0.1053
      4 O3         24.6070    7.0270    3.5420 O.2       1 DHT        -0.3916
      5 C4         24.4570    4.9470    4.4700 C.3       1 DHT         0.0244
      6 C5         25.2980    3.7110    3.9910 C.3       1 DHT        -0.0194
      7 C6         24.6020    2.3300    4.2660 C.3       1 DHT        -0.0473
      8 C7         25.4890    1.1780    3.7360 C.3       1 DHT        -0.0493
      9 C8         26.9030    1.1550    4.4180 C.3       1 DHT        -0.0343
     10 C9         27.5950    2.5460    4.1760 C.3       1 DHT        -0.0320
     11 C10        26.7230    3.7620    4.7090 C.3       1 DHT        -0.0219
     12 C11        29.0140    2.4940    4.8300 C.3       1 DHT        -0.0489
     13 C12        29.9300    1.3520    4.3990 C.3       1 DHT        -0.0447
     14 C13        29.2430   -0.0370    4.5080 C.3       1 DHT        -0.0030
     15 C14        27.8190    0.0360    3.8480 C.3       1 DHT        -0.0301
     16 C15        27.3370   -1.4250    3.9770 C.3       1 DHT        -0.0470
     17 C16        28.6190   -2.2230    3.5900 C.3       1 DHT        -0.0261
     18 C17        29.7780   -1.1910    3.6800 C.3       1 DHT         0.0609
     19 O17        30.9260   -1.8170    4.2640 O.3       1 DHT        -0.3912
     20 C18        29.1640   -0.4420    6.0350 C.3       1 DHT        -0.0569
     21 C19        26.5610    3.6230    6.2790 C.3       1 DHT        -0.0588
     22 H1         28.3012    5.2303    4.9062 H         1 DHT         0.0296
     23 H2         27.4880    5.2207    3.3046 H         1 DHT         0.0296
     24 H3         26.8392    7.2705    4.4815 H         1 DHT         0.0494
     25 H4         26.3619    6.3380    5.9407 H         1 DHT         0.0494
     26 H5         23.4777    4.9132    3.9702 H         1 DHT         0.0497
     27 H6         24.3163    4.8685    5.5581 H         1 DHT         0.0497
     28 H7         25.4463    3.8002    2.9047 H         1 DHT         0.0331
     29 H8         23.6279    2.3045    3.7557 H         1 DHT         0.0270
     30 H9         24.4522    2.2063    5.3487 H         1 DHT         0.0270
     31 H10        25.6212    1.3032    2.6512 H         1 DHT         0.0268
     32 H11        24.9839    0.2215    3.9359 H         1 DHT         0.0268
     33 H12        26.7736    0.9906    5.4979 H         1 DHT         0.0306
     34 H13        27.7205    2.6839    3.0919 H         1 DHT         0.0309
     35 H14        28.8759    2.4168    5.9185 H         1 DHT         0.0268
     36 H15        29.5250    3.4384    4.5913 H         1 DHT         0.0268
     37 H16        30.8231    1.3549    5.0412 H         1 DHT         0.0271
     38 H17        30.2297    1.5159    3.3534 H         1 DHT         0.0271
     39 H18        27.9357    0.2635    2.7781 H         1 DHT         0.0310
     40 H19        26.5100   -1.6360    3.2831 H         1 DHT         0.0269
     41 H20        27.0198   -1.6522    5.0055 H         1 DHT         0.0269
     42 H21        28.5334   -2.6200    2.5677 H         1 DHT         0.0290
     43 H22        28.7848   -3.0527    4.2929 H         1 DHT         0.0290
     44 H23        30.0442   -0.8292    2.6759 H         1 DHT         0.0599
     45 H24        31.6349   -1.1871    4.3194 H         1 DHT         0.2098
     46 H25        28.7748    0.4049    6.6193 H         1 DHT         0.0236
     47 H26        30.1687   -0.7061    6.3968 H         1 DHT         0.0236
     48 H27        28.4935   -1.3063    6.1509 H         1 DHT         0.0236
     49 H28        25.9583    4.4602    6.6609 H         1 DHT         0.0235
     50 H29        27.5535    3.6396    6.7530 H         1 DHT         0.0235
     51 H30        26.0587    2.6728    6.5131 H         1 DHT         0.0235
@<TRIPOS>BOND
     1    1    2 1  
     2    1   11 1  
     3    2    3 1  
     4    3    4 2  
     5    3    5 1  
     6    5    6 1  
     7    6    7 1  
     8    6   11 1  
     9    7    8 1  
    10    8    9 1  
    11    9   10 1  
    12    9   15 1  
    13   10   11 1  
    14   10   12 1  
    15   11   21 1  
    16   12   13 1  
    17   13   14 1  
    18   14   15 1  
    19   14   18 1  
    20   14   20 1  
    21   15   16 1  
    22   16   17 1  
    23   17   18 1  
    24   18   19 1  
    25    1   22 1  
    26    1   23 1  
    27    2   24 1  
    28    2   25 1  
    29    5   26 1  
    30    5   27 1  
    31    6   28 1  
    32    7   29 1  
    33    7   30 1  
    34    8   31 1  
    35    8   32 1  
    36    9   33 1  
    37   10   34 1  
    38   12   35 1  
    39   12   36 1  
    40   13   37 1  
    41   13   38 1  
    42   15   39 1  
    43   16   40 1  
    44   16   41 1  
    45   17   42 1  
    46   17   43 1  
    47   18   44 1  
    48   19   45 1  
    49   20   46 1  
    50   20   47 1  
    51   20   48 1  
    52   21   49 1  
    53   21   50 1  
    54   21   51 1  
@<TRIPOS>SUBSTRUCTURE
     1 DHT         1

