### 
### Created by X-TOOL on Mon Sep 10 21:12:46 2018
### 

@<TRIPOS>MOLECULE
2amv_ligand
   48    49     1     0     0
SMALL
GAST_HUCK


@<TRIPOS>ATOM
      1 C1         28.1030    2.4370   52.8170 C.ar      1 BIN        -0.0196
      2 C2         27.4550    3.8220   53.2110 C.ar      1 BIN         0.0418
      3 C3         27.6440    4.3340   54.6160 C.ar      1 BIN        -0.0556
      4 C4         28.4830    3.5460   55.5770 C.ar      1 BIN        -0.0692
      5 C5         29.0730    2.3630   55.2320 C.ar      1 BIN        -0.0693
      6 C6         28.9040    1.7820   53.8950 C.ar      1 BIN        -0.0591
      7 C7         27.9610    1.7570   51.3900 C.3       1 BIN         0.0376
      8 C8         27.0460    0.3760   51.4150 C.2       1 BIN         0.0508
      9 C9         29.9990    0.3290   50.5870 C.2       1 BIN         0.1090
     10 C11        27.6410   -0.9080   51.1770 C.2       1 BIN         0.0610
     11 C12        29.3400    1.6580   50.7470 C.2       1 BIN         0.0256
     12 C13        30.0280    3.0170   50.3770 C.2       1 BIN         0.0498
     13 C14        31.3790    0.2200   50.1020 C.2       1 BIN         0.0881
     14 C15        26.9570   -2.2800   51.0880 C.3       1 BIN        -0.0003
     15 C16        30.3800   -2.2620   52.9380 C.3       1 BIN        -0.0406
     16 C17        29.9660   -2.1000   51.5030 C.3       1 BIN         0.0457
     17 C18        25.4960    0.5740   51.6760 C.2       1 BIN         0.2179
     18 C19        23.5260    2.1670   51.4330 C.3       1 BIN         0.0791
     19 C20        23.2920    2.5980   52.9070 C.3       1 BIN        -0.0348
     20 C21        23.2690    3.2190   50.3990 C.3       1 BIN        -0.0348
     21 N10        29.1850   -0.9100   51.0350 N.pl3     1 BIN        -0.2506
     22 O3A        29.3430    4.1010   50.2600 O.co2     1 BIN        -0.5682
     23 O3B        31.2440    3.1440   50.3610 O.co2     1 BIN        -0.5682
     24 O4A        32.2790    0.5670   50.9110 O.co2     1 BIN        -0.5586
     25 O4B        31.5460   -0.1460   48.9130 O.co2     1 BIN        -0.5586
     26 O8A        24.7800   -0.2850   52.1400 O.2       1 BIN        -0.3934
     27 O8         25.0850    1.8260   51.3370 O.3       1 BIN        -0.2854
     28 CL2        26.6050    4.8260   52.2430 Cl        1 BIN        -0.0778
     29 H1         27.1785    5.2618   54.9283 H         1 BIN         0.0602
     30 H2         28.6265    3.9285   56.5811 H         1 BIN         0.0551
     31 H3         29.6802    1.8413   55.9630 H         1 BIN         0.0598
     32 H4         29.3825    0.8335   53.6794 H         1 BIN         0.0551
     33 H5         27.3921    2.4614   50.7654 H         1 BIN         0.0592
     34 H6         25.8700   -2.1558   51.2016 H         1 BIN         0.0467
     35 H7         27.3371   -2.9319   51.8884 H         1 BIN         0.0467
     36 H8         27.1739   -2.7351   50.1103 H         1 BIN         0.0467
     37 H9         30.9399   -3.2017   53.0542 H         1 BIN         0.0253
     38 H10        29.4852   -2.2869   53.5772 H         1 BIN         0.0253
     39 H11        31.0182   -1.4161   53.2333 H         1 BIN         0.0253
     40 H12        29.3600   -2.9838   51.2549 H         1 BIN         0.0570
     41 H13        30.8930   -2.1130   50.9110 H         1 BIN         0.0570
     42 H14        22.9093    1.2838   51.2103 H         1 BIN         0.0640
     43 H15        22.2311    2.8506   53.0511 H         1 BIN         0.0258
     44 H16        23.9124    3.4773   53.1349 H         1 BIN         0.0258
     45 H17        23.5666    1.7714   53.5788 H         1 BIN         0.0258
     46 H18        23.4654    2.8056   49.3987 H         1 BIN         0.0258
     47 H19        23.9323    4.0782   50.5773 H         1 BIN         0.0258
     48 H20        22.2206    3.5459   50.4612 H         1 BIN         0.0258
@<TRIPOS>BOND
     1    1    2 ar 
     2    1    6 ar 
     3    7    1 1  
     4    2    3 ar 
     5    2   28 1  
     6    3    4 ar 
     7    5    4 ar 
     8    6    5 ar 
     9    8    7 1  
    10    7   11 1  
    11    8   10 2  
    12   17    8 1  
    13   11    9 2  
    14    9   13 1  
    15   21    9 1  
    16   10   14 1  
    17   10   21 1  
    18   11   12 1  
    19   12   22 ar 
    20   12   23 ar 
    21   13   24 ar 
    22   13   25 ar 
    23   16   15 1  
    24   21   16 1  
    25   17   26 2  
    26   27   17 1  
    27   18   19 1  
    28   18   20 1  
    29   18   27 1  
    30    3   29 1  
    31    4   30 1  
    32    5   31 1  
    33    6   32 1  
    34    7   33 1  
    35   14   34 1  
    36   14   35 1  
    37   14   36 1  
    38   15   37 1  
    39   15   38 1  
    40   15   39 1  
    41   16   40 1  
    42   16   41 1  
    43   18   42 1  
    44   19   43 1  
    45   19   44 1  
    46   19   45 1  
    47   20   46 1  
    48   20   47 1  
    49   20   48 1  
@<TRIPOS>SUBSTRUCTURE
     1 BIN         1

