### 
### Created by X-TOOL on Mon Sep 10 21:12:54 2018
### 

@<TRIPOS>MOLECULE
2an5_ligand
   26    27     1     0     0
SMALL
GAST_HUCK


@<TRIPOS>ATOM
      1 OAB        29.4990   46.3790   17.6890 O.3       1 TTL        -0.3749
      2 CAL        28.6720   45.3280   18.1970 C.3       1 TTL         0.1291
      3 CAJ        28.1850   44.4470   17.0440 C.ar      1 TTL        -0.0074
      4 CAF        27.7580   45.0510   15.8650 C.ar      1 TTL        -0.0642
      5 CAD        27.2590   44.2820   14.8200 C.ar      1 TTL        -0.0754
      6 CAC        27.1880   42.8970   14.9580 C.ar      1 TTL        -0.0755
      7 CAE        27.6160   42.2970   16.1350 C.ar      1 TTL        -0.0668
      8 CAI        28.1190   43.0610   17.1850 C.ar      1 TTL        -0.0382
      9 CAG        28.6160   42.3150   18.4270 C.3       1 TTL        -0.0162
     10 CAH        28.7050   43.2460   19.6360 C.3       1 TTL         0.0031
     11 CAK        29.4420   44.5370   19.2620 C.3       1 TTL         0.0125
     12 NAA        29.6170   45.3720   20.4560 N.4       1 TTL         0.2240
     13 H1         29.7977   46.9217   18.4093 H         1 TTL         0.2130
     14 H2         27.7901   45.7766   18.6776 H         1 TTL         0.0800
     15 H3         27.8150   46.1285   15.7609 H         1 TTL         0.0538
     16 H4         26.9272   44.7566   13.9036 H         1 TTL         0.0541
     17 H5         26.7996   42.2896   14.1485 H         1 TTL         0.0541
     18 H6         27.5578   41.2195   16.2378 H         1 TTL         0.0537
     19 H7         29.6135   41.8999   18.2204 H         1 TTL         0.0413
     20 H8         27.9183   41.4961   18.6561 H         1 TTL         0.0413
     21 H9         29.2506   42.7385   20.4451 H         1 TTL         0.0343
     22 H10        27.6895   43.4943   19.9780 H         1 TTL         0.0343
     23 H11        30.4315   44.2737   18.8601 H         1 TTL         0.0899
     24 H12        30.1019   46.2194   20.2052 H         1 TTL         0.1999
     25 H13        30.1554   44.8676   21.1428 H         1 TTL         0.1999
     26 H14        28.7140   45.6027   20.8400 H         1 TTL         0.1999
@<TRIPOS>BOND
     1    1    2 1  
     2    2    3 1  
     3    2   11 1  
     4    3    4 ar 
     5    3    8 ar 
     6    4    5 ar 
     7    5    6 ar 
     8    6    7 ar 
     9    7    8 ar 
    10    8    9 1  
    11    9   10 1  
    12   10   11 1  
    13   11   12 1  
    14    1   13 1  
    15    2   14 1  
    16    4   15 1  
    17    5   16 1  
    18    6   17 1  
    19    7   18 1  
    20    9   19 1  
    21    9   20 1  
    22   10   21 1  
    23   10   22 1  
    24   11   23 1  
    25   12   24 1  
    26   12   25 1  
    27   12   26 1  
@<TRIPOS>SUBSTRUCTURE
     1 TTL         1

