### 
### Created by X-TOOL on Mon Sep 10 21:12:53 2018
### 

@<TRIPOS>MOLECULE
2ank_ligand
   71    73     1     0     0
SMALL
GAST_HUCK


@<TRIPOS>ATOM
      1 C1         14.2050   16.0150   22.9550 C.2       1 N12         0.0813
      2 C2         15.6210   16.4000   22.6200 C.3       1 N12         0.0214
      3 N3         16.2270   17.1140   23.7480 N.4       1 N12         0.2577
      4 C4         17.5010   17.8040   23.5530 C.3       1 N12         0.0681
      5 C5         17.2490   19.0670   22.7610 C.2       1 N12         0.2239
      6 C6         18.1370   18.1140   24.9350 C.3       1 N12         0.0108
      7 C7         19.4500   18.9000   24.8050 C.3       1 N12        -0.0338
      8 C8         19.8770   19.4160   26.1920 C.3       1 N12        -0.0499
      9 C9         21.1920   20.2370   26.0830 C.3       1 N12        -0.0528
     10 C10        22.3200   19.3870   25.4440 C.3       1 N12        -0.0530
     11 C11        21.8720   18.8160   24.0710 C.3       1 N12        -0.0528
     12 C12        20.5700   17.9930   24.2290 C.3       1 N12        -0.0499
     13 O13        16.4490   19.8960   23.1660 O.2       1 N12        -0.3910
     14 N14        17.9380   19.2330   21.5890 N.am      1 N12        -0.2713
     15 C15        17.8250   20.3980   20.6730 C.3       1 N12         0.1332
     16 C16        16.3630   20.7120   20.3240 C.2       1 N12         0.2263
     17 O17        15.6270   19.7970   19.9730 O.2       1 N12        -0.3419
     18 N18        15.8720   21.9950   20.3940 N.am      1 N12        -0.2715
     19 C19        14.4630   22.3080   20.0380 C.3       1 N12         0.0707
     20 C20        13.5200   22.2490   21.2250 C.ar      1 N12         0.0072
     21 C21        12.9190   21.0270   21.6140 C.ar      1 N12        -0.0385
     22 C22        12.0350   21.0080   22.7180 C.ar      1 N12        -0.0350
     23 C23        11.7570   22.2250   23.3930 C.ar      1 N12         0.0917
     24 N24        12.3570   23.3690   22.9890 N.ar      1 N12        -0.2990
     25 C25        13.1990   23.4190   21.9440 C.ar      1 N12         0.0144
     26 O26        13.2890   16.3120   22.1890 O.co2     1 N12        -0.5645
     27 O27        13.9690   15.3960   23.9850 O.co2     1 N12        -0.5645
     28 C28        10.8210   22.2580   24.5630 C.cat     1 N12         0.2487
     29 N29        10.5980   23.4010   25.2030 N.pl3     1 N12        -0.2713
     30 N30        10.1970   21.1550   24.9740 N.pl3     1 N12        -0.2713
     31 C31        18.6030   20.0880   19.3840 C.3       1 N12        -0.0199
     32 C32        18.5610   21.6150   21.2750 C.3       1 N12        -0.0199
     33 C33        20.0040   20.7250   19.5310 C.3       1 N12        -0.0516
     34 C34        20.0490   21.3060   20.9710 C.3       1 N12        -0.0516
     35 H1         15.6213   17.0518   21.7339 H         1 N12         0.0989
     36 H2         16.2048   15.4922   22.4077 H         1 N12         0.0989
     37 H3         16.3672   16.4387   24.4831 H         1 N12         0.2049
     38 H4         15.5602   17.8066   24.0508 H         1 N12         0.2049
     39 H5         18.1847   17.1559   22.9851 H         1 N12         0.1099
     40 H6         18.3418   17.1649   25.4519 H         1 N12         0.0348
     41 H7         17.4255   18.7080   25.5274 H         1 N12         0.0348
     42 H8         19.2939   19.7542   24.1298 H         1 N12         0.0304
     43 H9         20.0389   18.5598   26.8633 H         1 N12         0.0268
     44 H10        19.0822   20.0572   26.6007 H         1 N12         0.0268
     45 H11        21.5045   20.5529   27.0893 H         1 N12         0.0265
     46 H12        21.0122   21.1250   25.4592 H         1 N12         0.0265
     47 H13        22.5684   18.5533   26.1172 H         1 N12         0.0265
     48 H14        23.2089   20.0185   25.2989 H         1 N12         0.0265
     49 H15        22.6652   18.1667   23.6719 H         1 N12         0.0265
     50 H16        21.6930   19.6474   23.3734 H         1 N12         0.0265
     51 H17        20.2596   17.6061   23.2472 H         1 N12         0.0268
     52 H18        20.7492   17.1517   24.9147 H         1 N12         0.0268
     53 H19        18.5730   18.5064   21.3265 H         1 N12         0.1840
     54 H20        16.4766   22.7340   20.6911 H         1 N12         0.1886
     55 H21        14.1230   21.5819   19.2849 H         1 N12         0.0701
     56 H22        14.4267   23.3218   19.6126 H         1 N12         0.0701
     57 H23        13.1346   20.1143   21.0704 H         1 N12         0.0678
     58 H24        11.5779   20.0803   23.0428 H         1 N12         0.0693
     59 H25        13.6357   24.3668   21.6506 H         1 N12         0.0766
     60 H26         9.9548   23.4240   26.0071 H         1 N12         0.3181
     61 H27        11.0684   24.2640   24.8949 H         1 N12         0.3181
     62 H28        10.3586   20.2608   24.4890 H         1 N12         0.3181
     63 H29         9.5529   21.1964   25.7767 H         1 N12         0.3181
     64 H30        18.0821   20.5193   18.5165 H         1 N12         0.0277
     65 H31        18.6958   18.9999   19.2523 H         1 N12         0.0277
     66 H32        18.3854   21.6873   22.3585 H         1 N12         0.0277
     67 H33        18.2437   22.5494   20.7889 H         1 N12         0.0277
     68 H34        20.1416   21.5256   18.7894 H         1 N12         0.0265
     69 H35        20.7876   19.9643   19.3991 H         1 N12         0.0265
     70 H36        20.4519   20.5690   21.6812 H         1 N12         0.0265
     71 H37        20.6575   22.2216   21.0080 H         1 N12         0.0265
@<TRIPOS>BOND
     1    1    2 1  
     2    1   26 ar 
     3    1   27 ar 
     4    2    3 1  
     5    3    4 1  
     6    4    5 1  
     7    4    6 1  
     8    5   13 2  
     9    5   14 am 
    10    6    7 1  
    11    7    8 1  
    12    7   12 1  
    13    8    9 1  
    14    9   10 1  
    15   10   11 1  
    16   11   12 1  
    17   14   15 1  
    18   15   16 1  
    19   15   31 1  
    20   15   32 1  
    21   16   17 2  
    22   16   18 am 
    23   18   19 1  
    24   19   20 1  
    25   20   21 ar 
    26   20   25 ar 
    27   21   22 ar 
    28   22   23 ar 
    29   23   24 ar 
    30   23   28 1  
    31   24   25 ar 
    32   28   29 ar 
    33   28   30 ar 
    34   31   33 1  
    35   32   34 1  
    36   33   34 1  
    37    2   35 1  
    38    2   36 1  
    39    3   37 1  
    40    3   38 1  
    41    4   39 1  
    42    6   40 1  
    43    6   41 1  
    44    7   42 1  
    45    8   43 1  
    46    8   44 1  
    47    9   45 1  
    48    9   46 1  
    49   10   47 1  
    50   10   48 1  
    51   11   49 1  
    52   11   50 1  
    53   12   51 1  
    54   12   52 1  
    55   14   53 1  
    56   18   54 1  
    57   19   55 1  
    58   19   56 1  
    59   21   57 1  
    60   22   58 1  
    61   25   59 1  
    62   29   60 1  
    63   29   61 1  
    64   30   62 1  
    65   30   63 1  
    66   31   64 1  
    67   31   65 1  
    68   32   66 1  
    69   32   67 1  
    70   33   68 1  
    71   33   69 1  
    72   34   70 1  
    73   34   71 1  
@<TRIPOS>SUBSTRUCTURE
     1 N12         1

