### 
### Created by X-TOOL on Mon Sep 10 21:12:55 2018
### 

@<TRIPOS>MOLECULE
2anl_ligand
   78    81     1     0     0
SMALL
GAST_HUCK


@<TRIPOS>ATOM
      1 C1         56.4850   14.6610   30.6000 C.ar      1 JE2         0.0948
      2 O2         56.9170   14.0180   31.7500 O.3       1 JE2        -0.3358
      3 C3         55.8570   15.8810   30.8120 C.ar      1 JE2        -0.0355
      4 C4         55.3720   16.5520   29.7190 C.ar      1 JE2        -0.0720
      5 C5         55.5190   16.0130   28.4350 C.ar      1 JE2        -0.0597
      6 C6         56.1350   14.8000   28.2100 C.ar      1 JE2         0.0427
      7 C7         56.6210   14.1340   29.2950 C.ar      1 JE2         0.0036
      8 C8         57.2770   12.8220   29.0630 C.3       1 JE2        -0.0293
      9 C9         56.2460   14.2830   26.8010 C.2       1 JE2         0.1980
     10 O10        56.3670   12.9890   26.5280 O.2       1 JE2        -0.3887
     11 N11        56.2370   15.0980   25.8380 N.am      1 JE2        -0.2778
     12 C12        56.3340   14.6570   24.4560 C.3       1 JE2         0.0938
     13 C13        55.5220   15.6880   23.7060 C.3       1 JE2         0.0085
     14 C14        54.2110   15.8740   24.4290 C.ar      1 JE2        -0.0406
     15 C15        53.2900   14.8390   24.4640 C.ar      1 JE2        -0.0603
     16 C16        52.0780   15.0150   25.1010 C.ar      1 JE2        -0.0686
     17 C17        51.7990   16.2190   25.7170 C.ar      1 JE2        -0.0687
     18 C18        52.7020   17.2450   25.6710 C.ar      1 JE2        -0.0686
     19 C19        53.9170   17.0770   25.0340 C.ar      1 JE2        -0.0603
     20 C20        57.7680   14.6760   23.9660 C.3       1 JE2         0.1683
     21 O21        58.2030   16.0020   23.7760 O.3       1 JE2        -0.3689
     22 C22        57.7820   14.0300   22.6320 C.2       1 JE2         0.2129
     23 O23        57.8490   14.7400   21.6770 O.2       1 JE2        -0.3938
     24 N24        57.6640   12.7040   22.5670 N.am      1 JE2        -0.2383
     25 C25        57.5850   11.8250   23.7420 C.3       1 JE2         0.0831
     26 S26        58.3950   10.3740   23.2090 S.3       1 JE2        -0.1252
     27 C27        57.6250   10.4020   21.6700 C.3       1 JE2         0.0532
     28 C28        58.4600    9.6510   20.6490 C.3       1 JE2        -0.0463
     29 C29        56.2720    9.7310   22.0100 C.3       1 JE2        -0.0463
     30 C30        57.6790   11.9090   21.3180 C.3       1 JE2         0.1486
     31 C31        56.5810   12.1650   20.3140 C.2       1 JE2         0.2049
     32 O32        56.9210   12.2660   19.1180 O.2       1 JE2        -0.3943
     33 N33        55.3000   12.1660   20.7780 N.am      1 JE2        -0.2748
     34 C34        54.1690   12.1710   19.8670 C.3       1 JE2         0.0621
     35 C35        52.9460   12.6150   20.6230 C.ar      1 JE2        -0.0193
     36 C36        52.3390   13.8790   20.4820 C.ar      1 JE2        -0.0422
     37 C37        51.2040   14.2260   21.2090 C.ar      1 JE2        -0.0671
     38 C38        50.6750   13.3150   22.0940 C.ar      1 JE2        -0.0755
     39 C39        51.2570   12.0510   22.2290 C.ar      1 JE2        -0.0754
     40 C40        52.3970   11.7040   21.5050 C.ar      1 JE2        -0.0649
     41 C41        52.8820   14.9250   19.5330 C.3       1 JE2        -0.0336
     42 H1         56.1724   13.8474   32.3148 H         1 JE2         0.2456
     43 H2         55.7534   16.2903   31.8104 H         1 JE2         0.0556
     44 H3         54.8721   17.5049   29.8496 H         1 JE2         0.0543
     45 H4         55.1348   16.5692   27.5876 H         1 JE2         0.0556
     46 H5         57.6162   12.4067   30.0235 H         1 JE2         0.0382
     47 H6         58.1414   12.9570   28.3963 H         1 JE2         0.0382
     48 H7         56.5594   12.1304   28.5975 H         1 JE2         0.0382
     49 H8         56.1609   16.0763   26.0310 H         1 JE2         0.1850
     50 H9         55.9130   13.6482   24.3331 H         1 JE2         0.0630
     51 H10        55.3348   15.3396   22.6796 H         1 JE2         0.0451
     52 H11        56.0687   16.6420   23.6754 H         1 JE2         0.0451
     53 H12        53.5213   13.8913   23.9912 H         1 JE2         0.0557
     54 H13        51.3494   14.2126   25.1176 H         1 JE2         0.0599
     55 H14        50.8588   16.3516   26.2400 H         1 JE2         0.0559
     56 H15        52.4637   18.1946   26.1364 H         1 JE2         0.0599
     57 H16        54.6358   17.8881   25.0103 H         1 JE2         0.0557
     58 H17        58.4254   14.1489   24.6730 H         1 JE2         0.0863
     59 H18        57.6491   16.4265   23.1314 H         1 JE2         0.2134
     60 H19        56.5385   11.6170   24.0095 H         1 JE2         0.0640
     61 H20        58.1021   12.2714   24.6042 H         1 JE2         0.0640
     62 H21        57.9556    9.6777   19.6718 H         1 JE2         0.0245
     63 H22        58.5805    8.6061   20.9710 H         1 JE2         0.0245
     64 H23        59.4490   10.1250   20.5641 H         1 JE2         0.0245
     65 H24        55.6523    9.6751   21.1029 H         1 JE2         0.0245
     66 H25        55.7500   10.3250   22.7746 H         1 JE2         0.0245
     67 H26        56.4523    8.7161   22.3940 H         1 JE2         0.0245
     68 H27        58.6345   12.1236   20.8170 H         1 JE2         0.0816
     69 H28        55.1355   12.1632   21.7644 H         1 JE2         0.1876
     70 H29        54.0104   11.1585   19.4674 H         1 JE2         0.0668
     71 H30        54.3645   12.8662   19.0373 H         1 JE2         0.0668
     72 H31        50.7439   15.1990   21.0799 H         1 JE2         0.0537
     73 H32        49.8064   13.5775   22.6870 H         1 JE2         0.0541
     74 H33        50.8152   11.3297   22.9069 H         1 JE2         0.0541
     75 H34        52.8491   10.7271   21.6331 H         1 JE2         0.0538
     76 H35        53.7730   14.5301   19.0230 H         1 JE2         0.0376
     77 H36        53.1537   15.8281   20.0992 H         1 JE2         0.0376
     78 H37        52.1141   15.1771   18.7869 H         1 JE2         0.0376
@<TRIPOS>BOND
     1    1    2 1  
     2    1    3 ar 
     3    1    7 ar 
     4    3    4 ar 
     5    4    5 ar 
     6    5    6 ar 
     7    6    7 ar 
     8    6    9 1  
     9    7    8 1  
    10    9   10 2  
    11    9   11 am 
    12   11   12 1  
    13   12   13 1  
    14   12   20 1  
    15   13   14 1  
    16   14   15 ar 
    17   14   19 ar 
    18   15   16 ar 
    19   16   17 ar 
    20   17   18 ar 
    21   18   19 ar 
    22   20   21 1  
    23   20   22 1  
    24   22   23 2  
    25   22   24 am 
    26   24   25 1  
    27   24   30 1  
    28   25   26 1  
    29   26   27 1  
    30   27   28 1  
    31   27   29 1  
    32   27   30 1  
    33   30   31 1  
    34   31   32 2  
    35   31   33 am 
    36   33   34 1  
    37   34   35 1  
    38   35   36 ar 
    39   35   40 ar 
    40   36   37 ar 
    41   36   41 1  
    42   37   38 ar 
    43   38   39 ar 
    44   39   40 ar 
    45    2   42 1  
    46    3   43 1  
    47    4   44 1  
    48    5   45 1  
    49    8   46 1  
    50    8   47 1  
    51    8   48 1  
    52   11   49 1  
    53   12   50 1  
    54   13   51 1  
    55   13   52 1  
    56   15   53 1  
    57   16   54 1  
    58   17   55 1  
    59   18   56 1  
    60   19   57 1  
    61   20   58 1  
    62   21   59 1  
    63   25   60 1  
    64   25   61 1  
    65   28   62 1  
    66   28   63 1  
    67   28   64 1  
    68   29   65 1  
    69   29   66 1  
    70   29   67 1  
    71   30   68 1  
    72   33   69 1  
    73   34   70 1  
    74   34   71 1  
    75   37   72 1  
    76   38   73 1  
    77   39   74 1  
    78   40   75 1  
    79   41   76 1  
    80   41   77 1  
    81   41   78 1  
@<TRIPOS>SUBSTRUCTURE
     1 JE2         1

