### 
### Created by X-TOOL on Mon Sep 10 21:12:54 2018
### 

@<TRIPOS>MOLECULE
2anm_ligand
   68    70     1     0     0
SMALL
GAST_HUCK


@<TRIPOS>ATOM
      1 C1         12.2240   21.1610   22.4720 C.ar      1 CDO        -0.0350
      2 C2         11.8780   22.3780   23.1190 C.ar      1 CDO         0.0917
      3 N3         12.4600   23.5390   22.7430 N.ar      1 CDO        -0.2990
      4 C4         13.3600   23.6030   21.7510 C.ar      1 CDO         0.0144
      5 C5         13.7480   22.4350   21.0680 C.ar      1 CDO         0.0070
      6 C6         13.1690   21.1970   21.4270 C.ar      1 CDO        -0.0385
      7 C7         14.7580   22.5180   19.9670 C.3       1 CDO         0.0706
      8 C8         10.8950   22.3980   24.2200 C.cat     1 CDO         0.2487
      9 N9         10.1260   21.3390   24.4680 N.pl3     1 CDO        -0.2713
     10 N10        10.7800   23.4880   24.9690 N.pl3     1 CDO        -0.2713
     11 N11        16.0820   22.4690   20.5770 N.am      1 CDO        -0.2725
     12 C12        16.8770   21.3920   20.4140 C.2       1 CDO         0.2038
     13 C13        18.2340   21.3540   21.0660 C.3       1 CDO         0.1339
     14 O14        16.5080   20.4420   19.7560 O.2       1 CDO        -0.3944
     15 C15        19.3380   21.4740   19.9700 C.3       1 CDO        -0.0104
     16 C16        20.4280   20.4900   20.4650 C.3       1 CDO        -0.0281
     17 C17        19.5900   19.3810   21.1110 C.3       1 CDO         0.0371
     18 N18        18.4210   20.0330   21.7250 N.am      1 CDO        -0.2471
     19 C19        17.6310   19.5110   22.7320 C.2       1 CDO         0.2293
     20 C20        17.9190   18.1360   23.3220 C.3       1 CDO         0.0685
     21 O21        16.6820   20.1430   23.1600 O.2       1 CDO        -0.3905
     22 N22        16.6680   17.3790   23.3980 N.4       1 CDO         0.2577
     23 C23        15.9240   16.9980   22.1960 C.3       1 CDO         0.0214
     24 C24        14.6610   16.2990   22.6260 C.2       1 CDO         0.0813
     25 O25        14.6840   15.5280   23.5820 O.co2     1 CDO        -0.5645
     26 O26        13.6130   16.5040   22.0240 O.co2     1 CDO        -0.5645
     27 C27        18.4930   18.2530   24.7500 C.3       1 CDO         0.0108
     28 C28        19.8870   18.8930   24.7340 C.3       1 CDO        -0.0338
     29 C29        20.1930   19.5140   26.1080 C.3       1 CDO        -0.0499
     30 C30        21.5740   20.2290   26.0500 C.3       1 CDO        -0.0528
     31 C31        22.6870   19.2400   25.6310 C.3       1 CDO        -0.0530
     32 C32        22.3340   18.5330   24.2990 C.3       1 CDO        -0.0528
     33 C33        20.9570   17.8370   24.4050 C.3       1 CDO        -0.0499
     34 H1         11.7705   20.2245   22.7759 H         1 CDO         0.0693
     35 H2         13.7906   24.5584   21.4739 H         1 CDO         0.0766
     36 H3         13.4477   20.2881   20.9062 H         1 CDO         0.0678
     37 H4         14.6343   23.4614   19.4151 H         1 CDO         0.0699
     38 H5         14.6314   21.6704   19.2774 H         1 CDO         0.0699
     39 H6          9.4443   21.3670   25.2396 H         1 CDO         0.3181
     40 H7         10.2131   20.4922   23.8882 H         1 CDO         0.3181
     41 H8         11.3735   24.3082   24.7793 H         1 CDO         0.3181
     42 H9         10.0973   23.5135   25.7398 H         1 CDO         0.3181
     43 H10        16.4039   23.2429   21.1223 H         1 CDO         0.1880
     44 H11        18.3256   22.1694   21.7986 H         1 CDO         0.0802
     45 H12        19.7286   22.5007   19.9129 H         1 CDO         0.0313
     46 H13        18.9517   21.1733   18.9849 H         1 CDO         0.0313
     47 H14        21.0929   20.9674   21.1998 H         1 CDO         0.0287
     48 H15        21.0259   20.1020   19.6272 H         1 CDO         0.0287
     49 H16        20.1797   18.8598   21.8794 H         1 CDO         0.0524
     50 H17        19.2635   18.6597   20.3474 H         1 CDO         0.0524
     51 H18        18.6385   17.6078   22.6792 H         1 CDO         0.1099
     52 H19        16.0371   17.9299   23.9589 H         1 CDO         0.2049
     53 H20        16.8849   16.5211   23.8807 H         1 CDO         0.2049
     54 H21        16.5334   16.3203   21.5801 H         1 CDO         0.0989
     55 H22        15.6724   17.8965   21.6134 H         1 CDO         0.0989
     56 H23        18.5641   17.2483   25.1921 H         1 CDO         0.0348
     57 H24        17.8194   18.8745   25.3582 H         1 CDO         0.0348
     58 H25        19.9106   19.6811   23.9670 H         1 CDO         0.0304
     59 H26        20.2202   18.7227   26.8716 H         1 CDO         0.0268
     60 H27        19.4112   20.2441   26.3642 H         1 CDO         0.0268
     61 H28        21.8103   20.6382   27.0433 H         1 CDO         0.0265
     62 H29        21.5254   21.0485   25.3179 H         1 CDO         0.0265
     63 H30        22.8087   18.4818   26.4186 H         1 CDO         0.0265
     64 H31        23.6297   19.7927   25.5052 H         1 CDO         0.0265
     65 H32        23.1038   17.7804   24.0733 H         1 CDO         0.0265
     66 H33        22.3018   19.2784   23.4907 H         1 CDO         0.0265
     67 H34        20.7144   17.3515   23.4482 H         1 CDO         0.0268
     68 H35        20.9865   17.0805   25.2030 H         1 CDO         0.0268
@<TRIPOS>BOND
     1    1    2 ar 
     2    1    6 ar 
     3    2    3 ar 
     4    2    8 1  
     5    3    4 ar 
     6    4    5 ar 
     7    5    6 ar 
     8    5    7 1  
     9    7   11 1  
    10    8    9 ar 
    11    8   10 ar 
    12   11   12 am 
    13   12   13 1  
    14   12   14 2  
    15   13   15 1  
    16   13   18 1  
    17   15   16 1  
    18   16   17 1  
    19   17   18 1  
    20   18   19 am 
    21   19   20 1  
    22   19   21 2  
    23   20   22 1  
    24   20   27 1  
    25   22   23 1  
    26   23   24 1  
    27   24   25 ar 
    28   24   26 ar 
    29   27   28 1  
    30   28   29 1  
    31   28   33 1  
    32   29   30 1  
    33   30   31 1  
    34   31   32 1  
    35   32   33 1  
    36    1   34 1  
    37    4   35 1  
    38    6   36 1  
    39    7   37 1  
    40    7   38 1  
    41    9   39 1  
    42    9   40 1  
    43   10   41 1  
    44   10   42 1  
    45   11   43 1  
    46   13   44 1  
    47   15   45 1  
    48   15   46 1  
    49   16   47 1  
    50   16   48 1  
    51   17   49 1  
    52   17   50 1  
    53   20   51 1  
    54   22   52 1  
    55   22   53 1  
    56   23   54 1  
    57   23   55 1  
    58   27   56 1  
    59   27   57 1  
    60   28   58 1  
    61   29   59 1  
    62   29   60 1  
    63   30   61 1  
    64   30   62 1  
    65   31   63 1  
    66   31   64 1  
    67   32   65 1  
    68   32   66 1  
    69   33   67 1  
    70   33   68 1  
@<TRIPOS>SUBSTRUCTURE
     1 CDO         1

