### 
### Created by X-TOOL on Mon Sep 10 21:12:47 2018
### 

@<TRIPOS>MOLECULE
2ans_ligand
   33    35     1     0     0
SMALL
GAST_HUCK


@<TRIPOS>ATOM
      1 C1          6.8940   30.9830   17.7950 C.ar      1 2AN         0.0730
      2 C2          6.4930   32.3010   18.0090 C.ar      1 2AN        -0.0412
      3 C3          5.4440   32.9070   17.3110 C.ar      1 2AN        -0.0768
      4 C4          4.7650   32.2060   16.3730 C.ar      1 2AN        -0.0703
      5 C5          5.0970   30.8560   16.0810 C.ar      1 2AN        -0.0263
      6 C6          4.3460   30.1760   15.0850 C.ar      1 2AN        -0.0593
      7 C7          4.5980   28.8920   14.7490 C.ar      1 2AN        -0.0629
      8 C8          5.6290   28.1950   15.3930 C.ar      1 2AN        -0.0420
      9 N           7.9660   30.5030   18.5680 N.pl3     1 2AN        -0.2710
     10 S           7.6660   27.5800   17.0110 S.o2      1 2AN        -0.1624
     11 C9          6.4260   28.7560   16.3800 C.ar      1 2AN         0.0589
     12 C10         6.1910   30.1720   16.7870 C.ar      1 2AN         0.0329
     13 C11         7.9640   30.2300   19.9440 C.ar      1 2AN         0.0604
     14 C12         8.9440   29.3490   20.4560 C.ar      1 2AN        -0.0391
     15 C13         8.9890   29.0420   21.7990 C.ar      1 2AN        -0.0719
     16 C14         8.0880   29.5790   22.6790 C.ar      1 2AN        -0.0738
     17 C15         7.1080   30.4510   22.2160 C.ar      1 2AN        -0.0719
     18 C16         7.0310   30.7860   20.8610 C.ar      1 2AN        -0.0391
     19 O1          8.9940   28.1230   16.7680 O.co2     1 2AN        -0.4795
     20 O2          7.3750   27.3740   18.4180 O.co2     1 2AN        -0.4795
     21 O3          7.4660   26.3350   16.2770 O.co2     1 2AN        -0.4795
     22 H1          7.0210   32.8853   18.7539 H         1 2AN         0.0480
     23 H2          5.1750   33.9360   17.5205 H         1 2AN         0.0576
     24 H3          3.9537   32.6831   15.8352 H         1 2AN         0.0477
     25 H4          3.5458   30.7039   14.5789 H         1 2AN         0.0595
     26 H5          4.0052   28.4030   13.9845 H         1 2AN         0.0613
     27 H6          5.8129   27.1661   15.1055 H         1 2AN         0.0604
     28 H7          8.8507   30.3330   18.0686 H         1 2AN         0.2117
     29 H8          9.6705   28.9086   19.7827 H         1 2AN         0.0532
     30 H9          9.7511   28.3635   22.1649 H         1 2AN         0.0586
     31 H10         8.1381   29.3258   23.7318 H         1 2AN         0.0516
     32 H11         6.3957   30.8757   22.9141 H         1 2AN         0.0586
     33 H12         6.2633   31.4667   20.5112 H         1 2AN         0.0532
@<TRIPOS>BOND
     1    1   12 ar 
     2    1    9 1  
     3    1    2 ar 
     4    2    3 ar 
     5    3    4 ar 
     6    4    5 ar 
     7    5   12 ar 
     8    5    6 ar 
     9    6    7 ar 
    10    7    8 ar 
    11    8   11 ar 
    12   11   10 1  
    13   11   12 ar 
    14   10   19 ar 
    15   10   20 ar 
    16   10   21 ar 
    17    9   13 1  
    18   13   18 ar 
    19   13   14 ar 
    20   14   15 ar 
    21   15   16 ar 
    22   16   17 ar 
    23   17   18 ar 
    24    2   22 1  
    25    3   23 1  
    26    4   24 1  
    27    6   25 1  
    28    7   26 1  
    29    8   27 1  
    30    9   28 1  
    31   14   29 1  
    32   15   30 1  
    33   16   31 1  
    34   17   32 1  
    35   18   33 1  
@<TRIPOS>SUBSTRUCTURE
     1 2AN         1

