### 
### Created by X-TOOL on Mon Sep 10 21:12:53 2018
### 

@<TRIPOS>MOLECULE
2ao6_ligand
   45    48     1     0     0
SMALL
GAST_HUCK


@<TRIPOS>ATOM
      1 C1         27.2230    5.6740    3.6940 C.3       1 R18         0.0280
      2 C2         26.3530    6.8180    4.2060 C.3       1 R18         0.0431
      3 C3         24.8960    6.6830    3.7900 C.2       1 R18         0.1453
      4 C4         24.3220    5.3580    3.9950 C.2       1 R18         0.0317
      5 C5         25.0940    4.2280    4.0720 C.2       1 R18         0.0323
      6 C6         24.3940    2.8690    4.3110 C.3       1 R18         0.0007
      7 C7         25.1900    1.7150    3.7000 C.3       1 R18        -0.0278
      8 C8         26.6350    1.7090    4.2960 C.3       1 R18        -0.0038
      9 C9         27.3540    3.0980    4.0390 C.2       1 R18         0.0320
     10 C10        26.6080    4.2590    3.9420 C.2       1 R18         0.0433
     11 C11        28.8360    3.0620    3.9340 C.2       1 R18        -0.0301
     12 C12        29.5820    1.9280    4.0330 C.2       1 R18        -0.1332
     13 C13        28.9390    0.5400    4.2460 C.3       1 R18        -0.0815
     14 C14        27.4720    0.5830    3.6920 C.3       1 R18        -0.0842
     15 C15        26.9510   -0.8690    3.8880 C.3       1 R18        -0.0641
     16 C16        28.2610   -1.6930    3.7160 C.3       1 R18        -0.0430
     17 C17        29.4430   -0.6890    3.4440 C.3       1 R18         0.0069
     18 C18        28.9380    0.2760    5.8040 C.3       1 R18        -0.1225
     19 C27        29.5480   -0.4410    1.9370 C.3       1 R18        -0.0538
     20 O83        24.2400    7.6200    3.3440 O.2       1 R18        -0.3705
     21 O97        30.6520   -1.2580    3.9540 O.3       1 R18        -0.4088
     22 H1         28.1970    5.7235    4.2028 H         1 R18         0.0591
     23 H2         27.3677    5.8051    2.6115 H         1 R18         0.0591
     24 H3         26.7462    7.7644    3.8065 H         1 R18         0.0523
     25 H4         26.4046    6.8342    5.3047 H         1 R18         0.0523
     26 H5         23.2413    5.2630    4.0903 H         1 R18         0.0908
     27 H6         23.3944    2.8960    3.8527 H         1 R18         0.0464
     28 H7         24.2966    2.7024    5.3939 H         1 R18         0.0464
     29 H8         25.2435    1.8432    2.6088 H         1 R18         0.0316
     30 H9         24.6928    0.7620    3.9333 H         1 R18         0.0316
     31 H10        26.5609    1.5471    5.3815 H         1 R18         0.0468
     32 H11        29.3583    4.0029    3.7672 H         1 R18         0.1039
     33 H12        30.6660    2.0016    3.9597 H         1 R18         0.0414
     34 H13        27.5121    0.7813    2.6108 H         1 R18         0.0107
     35 H14        26.2054   -1.1352    3.1243 H         1 R18         0.0253
     36 H15        26.5167   -1.0087    4.8889 H         1 R18         0.0253
     37 H16        28.1571   -2.3843    2.8667 H         1 R18         0.0274
     38 H17        28.4632   -2.2662    4.6328 H         1 R18         0.0274
     39 H18        28.5743    1.1724    6.3275 H         1 R18         0.0009
     40 H19        29.9607    0.0462    6.1376 H         1 R18         0.0009
     41 H20        28.2783   -0.5743    6.0314 H         1 R18         0.0009
     42 H21        30.3719    0.2599    1.7373 H         1 R18         0.0239
     43 H22        28.6043   -0.0118    1.5694 H         1 R18         0.0239
     44 H23        29.7433   -1.3929    1.4215 H         1 R18         0.0239
     45 H24        31.3734   -0.6605    3.7955 H         1 R18         0.2077
@<TRIPOS>BOND
     1    1    2 1  
     2    1   10 1  
     3    2    3 1  
     4    3    4 1  
     5    3   20 2  
     6    4    5 2  
     7    5    6 1  
     8    5   10 1  
     9    6    7 1  
    10    7    8 1  
    11    8    9 1  
    12    8   14 1  
    13    9   10 2  
    14    9   11 1  
    15   11   12 2  
    16   12   13 1  
    17   13   14 1  
    18   13   17 1  
    19   13   18 1  
    20   14   15 1  
    21   15   16 1  
    22   16   17 1  
    23   17   19 1  
    24   17   21 1  
    25    1   22 1  
    26    1   23 1  
    27    2   24 1  
    28    2   25 1  
    29    4   26 1  
    30    6   27 1  
    31    6   28 1  
    32    7   29 1  
    33    7   30 1  
    34    8   31 1  
    35   11   32 1  
    36   12   33 1  
    37   14   34 1  
    38   15   35 1  
    39   15   36 1  
    40   16   37 1  
    41   16   38 1  
    42   18   39 1  
    43   18   40 1  
    44   18   41 1  
    45   19   42 1  
    46   19   43 1  
    47   19   44 1  
    48   21   45 1  
@<TRIPOS>SUBSTRUCTURE
     1 R18         1

