### 
### Created by X-TOOL on Mon Sep 10 21:12:53 2018
### 

@<TRIPOS>MOLECULE
2aoc_ligand
  126   125     1     0     0
SMALL
GAST_HUCK


@<TRIPOS>ATOM
      1 C          23.5570   24.3130   19.6080 C.2       1 2NC         0.1752
      2 O          23.2750   24.7250   20.7400 O.2       1 2NC        -0.3972
      3 CH3        24.2310   22.9670   19.4260 C.3       1 2NC         0.0258
      4 N          23.3250   25.0520   18.5100 N.am      1 2NC        -0.2635
      5 CA         22.7600   26.3740   18.5130 C.3       1 2NC         0.1566
      6 C          21.3920   26.4760   17.8210 C.2       1 2NC         0.2065
      7 O          20.7600   27.5560   17.9500 O.2       1 2NC        -0.3943
      8 CB         23.7080   27.3720   17.8160 C.3       1 2NC         0.0955
      9 OG1        23.9050   27.0090   16.4570 O.3       1 2NC        -0.3754
     10 CG2        25.0950   27.3220   18.5120 C.3       1 2NC        -0.0343
     11 CD1        24.5710   26.0400   15.6430 C.3       1 2NC         0.0371
     12 N          20.8700   25.4690   17.1720 N.am      1 2NC        -0.2634
     13 CA         19.5340   25.5150   16.5370 C.3       1 2NC         0.1334
     14 C          18.6290   24.4790   17.1520 C.2       1 2NC         0.2023
     15 O          18.5270   23.3530   16.6680 O.2       1 2NC        -0.3945
     16 CB         19.6230   25.3100   15.0040 C.3       1 2NC        -0.0037
     17 CG1        20.7810   26.1310   14.4190 C.3       1 2NC        -0.0491
     18 CG2        18.2870   25.5440   14.3550 C.3       1 2NC        -0.0582
     19 CD1        20.6370   27.6360   14.4720 C.3       1 2NC        -0.0648
     20 N          18.0410   24.8270   18.2650 N.am      1 2NC        -0.2769
     21 CA         17.3080   23.8360   19.0690 C.3       1 2NC         0.0817
     22 C          15.8110   23.8700   18.8570 C.3       1 2NC        -0.0081
     23 CB         17.6270   24.0460   20.5560 C.3       1 2NC        -0.0249
     24 CG         19.1140   24.0630   20.9220 C.3       1 2NC        -0.0510
     25 CD         19.8820   22.8530   20.4200 C.3       1 2NC        -0.0558
     26 CE         19.3310   21.5400   20.9220 C.3       1 2NC        -0.0653
     27 N          15.4340   23.7600   17.4780 N.4       1 2NC         0.2477
     28 CA         14.1590   23.0960   17.2070 C.3       1 2NC         0.0668
     29 C          14.2020   21.6520   17.6420 C.2       1 2NC         0.2268
     30 O          15.2370   21.0030   17.6870 O.2       1 2NC        -0.3907
     31 CB         13.6830   23.1670   15.7630 C.3       1 2NC         0.0079
     32 CG         14.6790   22.5100   14.8440 C.3       1 2NC        -0.0460
     33 CD         14.1690   22.4260   13.4410 C.3       1 2NC        -0.0556
     34 CE         15.1590   21.9110   12.4620 C.3       1 2NC        -0.0653
     35 N          13.0420   21.1090   17.9150 N.am      1 2NC        -0.2609
     36 CA         12.9040   19.6970   18.3040 C.3       1 2NC         0.1331
     37 C          11.4810   19.2650   17.9600 C.2       1 2NC         0.2040
     38 O          10.4990   19.9420   18.2710 O.2       1 2NC        -0.3944
     39 CB         13.2590   19.4950   19.7640 C.3       1 2NC         0.0045
     40 CG         13.0610   18.1050   20.3160 C.3       1 2NC         0.0412
     41 CD         11.6510   17.8570   20.8440 C.2       1 2NC         0.1737
     42 OE1        10.9740   18.7750   21.2350 O.2       1 2NC        -0.3973
     43 NE2        11.1870   16.6300   20.8000 N.am      1 2NC        -0.3009
     44 N          11.3810   18.0520   17.4630 N.am      1 2NC        -0.2637
     45 CA         10.1000   17.4480   17.1380 C.3       1 2NC         0.1307
     46 C          10.0400   16.0600   17.7590 C.2       1 2NC         0.1992
     47 O          11.0360   15.3260   17.7620 O.2       1 2NC        -0.3947
     48 CB          9.9260   17.3170   15.6310 C.3       1 2NC        -0.0092
     49 CG          9.5630   18.5760   14.8780 C.3       1 2NC        -0.0156
     50 CD          9.3630   18.1660   13.4190 C.3       1 2NC         0.0627
     51 NE          8.6890   19.1570   12.6180 N.pl3     1 2NC        -0.2723
     52 CZ          8.4920   18.9690   11.3070 C.cat     1 2NC         0.2882
     53 NH1         8.8940   17.8850   10.6770 N.pl3     1 2NC        -0.2849
     54 NH2         7.8870   19.9090   10.6320 N.pl3     1 2NC        -0.2849
     55 N           8.8050   15.6200   18.2900 N.am      1 2NC        -0.2990
     56 H1         24.3972   22.7821   18.3545 H         1 2NC         0.0467
     57 H2         23.5879   22.1760   19.8391 H         1 2NC         0.0467
     58 H3         25.1969   22.9664   19.9523 H         1 2NC         0.0467
     59 H4         23.5631   24.6526   17.6247 H         1 2NC         0.1883
     60 H5         22.6351   26.6776   19.5629 H         1 2NC         0.0826
     61 H6         23.2867   28.3863   17.8769 H         1 2NC         0.0642
     62 H7         25.7775   28.0312   18.0208 H         1 2NC         0.0257
     63 H8         25.5067   26.3048   18.4365 H         1 2NC         0.0257
     64 H9         24.9835   27.5947   19.5718 H         1 2NC         0.0257
     65 H10        24.3660   26.2488   14.5826 H         1 2NC         0.0524
     66 H11        24.2045   25.0342   15.8962 H         1 2NC         0.0524
     67 H12        25.6548   26.0917   15.8240 H         1 2NC         0.0524
     68 H13        21.4004   24.6242   17.1008 H         1 2NC         0.1883
     69 H14        19.1007   26.5086   16.7240 H         1 2NC         0.0802
     70 H15        19.8715   24.2527   14.8297 H         1 2NC         0.0345
     71 H16        20.8945   25.8434   13.3634 H         1 2NC         0.0267
     72 H17        21.6932   25.8631   14.9722 H         1 2NC         0.0267
     73 H18        17.5277   24.9140   14.8414 H         1 2NC         0.0235
     74 H19        18.3479   25.2865   13.2873 H         1 2NC         0.0235
     75 H20        18.0079   26.6027   14.4616 H         1 2NC         0.0235
     76 H21        21.5258   28.1053   14.0250 H         1 2NC         0.0230
     77 H22        20.5397   27.9584   15.5192 H         1 2NC         0.0230
     78 H23        19.7409   27.9386   13.9103 H         1 2NC         0.0230
     79 H24        18.0894   25.7768   18.5741 H         1 2NC         0.1857
     80 H25        17.6635   22.8377   18.7742 H         1 2NC         0.0609
     81 H26        15.4235   24.8212   19.2507 H         1 2NC         0.0837
     82 H27        15.3602   23.0332   19.4106 H         1 2NC         0.0837
     83 H28        17.1493   23.2327   21.1219 H         1 2NC         0.0289
     84 H29        17.1931   25.0095   20.8616 H         1 2NC         0.0289
     85 H30        19.2012   24.0990   22.0179 H         1 2NC         0.0266
     86 H31        19.5678   24.9663   20.4882 H         1 2NC         0.0266
     87 H32        20.9271   22.9416   20.7515 H         1 2NC         0.0263
     88 H33        19.8452   22.8486   19.3206 H         1 2NC         0.0263
     89 H34        19.9335   20.7120   20.5203 H         1 2NC         0.0230
     90 H35        18.2881   21.4291   20.5902 H         1 2NC         0.0230
     91 H36        19.3700   21.5222   22.0212 H         1 2NC         0.0230
     92 H37        16.1568   23.2433   17.0020 H         1 2NC         0.2036
     93 H38        15.3818   24.6923   17.0983 H         1 2NC         0.2036
     94 H39        13.4022   23.6088   17.8187 H         1 2NC         0.1099
     95 H40        13.5641   24.2214   15.4729 H         1 2NC         0.0346
     96 H41        12.7154   22.6513   15.6755 H         1 2NC         0.0346
     97 H42        14.8840   21.4930   15.2097 H         1 2NC         0.0269
     98 H43        15.6096   23.0964   14.8499 H         1 2NC         0.0269
     99 H44        13.8635   23.4341   13.1243 H         1 2NC         0.0263
    100 H45        13.2951   21.7580   13.4313 H         1 2NC         0.0263
    101 H46        14.7038   21.8820   11.4610 H         1 2NC         0.0230
    102 H47        15.4692   20.8966   12.7532 H         1 2NC         0.0230
    103 H48        16.0375   22.5727   12.4463 H         1 2NC         0.0230
    104 H49        12.2197   21.6751   17.8569 H         1 2NC         0.1885
    105 H50        13.6028   19.0944   17.7052 H         1 2NC         0.0801
    106 H51        12.6384   20.1824   20.3576 H         1 2NC         0.0337
    107 H52        14.3198   19.7572   19.8899 H         1 2NC         0.0337
    108 H53        13.7735   17.9524   21.1400 H         1 2NC         0.0504
    109 H54        13.2658   17.3794   19.5150 H         1 2NC         0.0504
    110 H55        10.2669   16.4310   21.1375 H         1 2NC         0.1814
    111 H56        11.7535   15.8942   20.4290 H         1 2NC         0.1814
    112 H57        12.2164   17.5262   17.3029 H         1 2NC         0.1883
    113 H58         9.2905   18.0721   17.5445 H         1 2NC         0.0800
    114 H59         9.1303   16.5793   15.4501 H         1 2NC         0.0313
    115 H60        10.8740   16.9427   15.2172 H         1 2NC         0.0313
    116 H61        10.3748   19.3139   14.9575 H         1 2NC         0.0301
    117 H62         8.6351   19.0066   15.2824 H         1 2NC         0.0301
    118 H63         8.7676   17.2413   13.3982 H         1 2NC         0.0689
    119 H64        10.3511   17.9760   12.9746 H         1 2NC         0.0689
    120 H65         8.3534   20.0240   13.0614 H         1 2NC         0.2642
    121 H66         8.7211   17.7824    9.6668 H         1 2NC         0.2615
    122 H67         9.3814   17.1396   11.1943 H         1 2NC         0.2615
    123 H68         7.5669   20.7626   11.1113 H         1 2NC         0.2615
    124 H69         7.7299   19.7968    9.6203 H         1 2NC         0.2615
    125 H70         8.7338   14.7128   18.7047 H         1 2NC         0.1815
    126 H71         8.0031   16.2161   18.2507 H         1 2NC         0.1815
@<TRIPOS>BOND
     1    1    2 2  
     2    1    3 1  
     3    1    4 am 
     4    4    5 1  
     5    5    6 1  
     6    5    8 1  
     7    6    7 2  
     8    6   12 am 
     9    8    9 1  
    10    8   10 1  
    11    9   11 1  
    12   12   13 1  
    13   13   14 1  
    14   13   16 1  
    15   14   15 2  
    16   14   20 am 
    17   16   17 1  
    18   16   18 1  
    19   17   19 1  
    20   20   21 1  
    21   21   22 1  
    22   21   23 1  
    23   22   27 1  
    24   23   24 1  
    25   24   25 1  
    26   25   26 1  
    27   27   28 1  
    28   28   29 1  
    29   28   31 1  
    30   29   30 2  
    31   29   35 am 
    32   31   32 1  
    33   32   33 1  
    34   33   34 1  
    35   35   36 1  
    36   36   37 1  
    37   36   39 1  
    38   37   38 2  
    39   37   44 am 
    40   39   40 1  
    41   40   41 1  
    42   41   42 2  
    43   41   43 am 
    44   44   45 1  
    45   45   46 1  
    46   45   48 1  
    47   46   47 2  
    48   46   55 am 
    49   48   49 1  
    50   49   50 1  
    51   50   51 1  
    52   51   52 ar 
    53   52   53 ar 
    54   52   54 ar 
    55    3   56 1  
    56    3   57 1  
    57    3   58 1  
    58    4   59 1  
    59    5   60 1  
    60    8   61 1  
    61   10   62 1  
    62   10   63 1  
    63   10   64 1  
    64   11   65 1  
    65   11   66 1  
    66   11   67 1  
    67   12   68 1  
    68   13   69 1  
    69   16   70 1  
    70   17   71 1  
    71   17   72 1  
    72   18   73 1  
    73   18   74 1  
    74   18   75 1  
    75   19   76 1  
    76   19   77 1  
    77   19   78 1  
    78   20   79 1  
    79   21   80 1  
    80   22   81 1  
    81   22   82 1  
    82   23   83 1  
    83   23   84 1  
    84   24   85 1  
    85   24   86 1  
    86   25   87 1  
    87   25   88 1  
    88   26   89 1  
    89   26   90 1  
    90   26   91 1  
    91   27   92 1  
    92   27   93 1  
    93   28   94 1  
    94   31   95 1  
    95   31   96 1  
    96   32   97 1  
    97   32   98 1  
    98   33   99 1  
    99   33  100 1  
   100   34  101 1  
   101   34  102 1  
   102   34  103 1  
   103   35  104 1  
   104   36  105 1  
   105   39  106 1  
   106   39  107 1  
   107   40  108 1  
   108   40  109 1  
   109   43  110 1  
   110   43  111 1  
   111   44  112 1  
   112   45  113 1  
   113   48  114 1  
   114   48  115 1  
   115   49  116 1  
   116   49  117 1  
   117   50  118 1  
   118   50  119 1  
   119   51  120 1  
   120   53  121 1  
   121   53  122 1  
   122   54  123 1  
   123   54  124 1  
   124   55  125 1  
   125   55  126 1  
@<TRIPOS>SUBSTRUCTURE
     1 2NC         1

