### 
### Created by X-TOOL on Mon Sep 10 21:12:53 2018
### 

@<TRIPOS>MOLECULE
2aoe_ligand
  130   130     1     0     0
SMALL
GAST_HUCK


@<TRIPOS>ATOM
      1 N          23.5510   27.5770   17.1710 N.4       1 0Q4         0.2379
      2 CA         22.6090   26.5720   17.6270 C.3       1 0Q4         0.0651
      3 C          21.1760   26.8060   17.1980 C.2       1 0Q4         0.2267
      4 O          20.6440   27.8970   17.4110 O.2       1 0Q4        -0.3907
      5 CB         22.7100   26.4570   19.1630 C.3       1 0Q4         0.0110
      6 CG         22.8200   25.0930   19.7910 C.3       1 0Q4        -0.0125
      7 CD         23.7800   24.0720   19.2270 C.3       1 0Q4         0.0629
      8 NE         24.9960   23.8050   19.9170 N.pl3     1 0Q4        -0.2723
      9 CZ         26.2610   23.9280   19.5810 C.cat     1 0Q4         0.2882
     10 NH1        26.6220   24.3990   18.3970 N.pl3     1 0Q4        -0.2849
     11 NH2        27.1550   23.5570   20.5070 N.pl3     1 0Q4        -0.2849
     12 N          20.5980   25.7510   16.6180 N.am      1 0Q4        -0.2608
     13 CA         19.2000   25.7360   16.2270 C.3       1 0Q4         0.1332
     14 C          18.5710   24.4920   16.8540 C.2       1 0Q4         0.2023
     15 O          18.7450   23.3960   16.3670 O.2       1 0Q4        -0.3945
     16 CB         19.0030   25.7430   14.7100 C.3       1 0Q4        -0.0063
     17 CG1        17.5310   25.5780   14.3800 C.3       1 0Q4        -0.0584
     18 CG2        19.5290   27.0310   14.0750 C.3       1 0Q4        -0.0584
     19 N          17.8700   24.7490   17.9550 N.am      1 0Q4        -0.2769
     20 CA         17.2640   23.6930   18.7400 C.3       1 0Q4         0.0820
     21 C          15.7430   23.6690   18.5490 C.3       1 0Q4        -0.0079
     22 CB         17.7680   23.8870   20.1690 C.3       1 0Q4        -0.0226
     23 CG         19.2470   23.6050   20.4140 C.3       1 0Q4        -0.0445
     24 CD1        19.6660   23.9140   21.8360 C.3       1 0Q4        -0.0626
     25 CD2        19.5840   22.1480   20.1160 C.3       1 0Q4        -0.0626
     26 N          15.3850   23.5820   17.2500 N.4       1 0Q4         0.2492
     27 CA         14.1560   22.9440   16.7880 C.3       1 0Q4         0.0763
     28 C          14.0950   21.5010   17.2480 C.2       1 0Q4         0.2289
     29 O          15.1240   20.8180   17.2100 O.2       1 0Q4        -0.3905
     30 CB         14.0960   22.9980   15.2640 C.3       1 0Q4         0.0416
     31 CG         13.2920   21.8870   14.6190 C.ar      1 0Q4        -0.0353
     32 CD1        11.9270   21.8080   14.7900 C.ar      1 0Q4        -0.0600
     33 CD2        13.8790   20.9140   13.8360 C.ar      1 0Q4        -0.0600
     34 CE1        11.1730   20.7900   14.2200 C.ar      1 0Q4        -0.0686
     35 CE2        13.1460   19.8990   13.2570 C.ar      1 0Q4        -0.0686
     36 CZ         11.7800   19.8300   13.4290 C.ar      1 0Q4        -0.0687
     37 N          12.9410   21.0120   17.6530 N.am      1 0Q4        -0.2608
     38 CA         12.8060   19.6050   18.0130 C.3       1 0Q4         0.1326
     39 C          11.3900   19.1440   17.6860 C.2       1 0Q4         0.2040
     40 O          10.4340   19.8940   17.8860 O.2       1 0Q4        -0.3944
     41 CB         13.1320   19.4400   19.4960 C.3       1 0Q4        -0.0008
     42 CG         13.1200   18.0330   20.0770 C.3       1 0Q4         0.0044
     43 CD         11.7470   17.5670   20.5120 C.2       1 0Q4         0.0350
     44 OE1        10.8810   18.4510   20.6980 O.co2     1 0Q4        -0.5690
     45 OE2        11.5070   16.3600   20.5880 O.co2     1 0Q4        -0.5690
     46 N          11.2670   17.8700   17.2900 N.am      1 0Q4        -0.2640
     47 CA          9.9260   17.3060   17.1610 C.3       1 0Q4         0.1282
     48 C           9.9270   15.7770   17.2540 C.2       1 0Q4         0.2036
     49 O          10.9480   15.1200   17.0410 O.2       1 0Q4        -0.3944
     50 CB          9.2900   17.7040   15.8500 C.3       1 0Q4        -0.0244
     51 N           8.7510   15.3070   17.5760 N.am      1 0Q4        -0.2637
     52 CA          8.0950   14.0340   17.4500 C.3       1 0Q4         0.1306
     53 C           8.8820   12.8360   17.9330 C.2       1 0Q4         0.1992
     54 O           8.4940   12.2430   18.9540 O.2       1 0Q4        -0.3947
     55 CB          7.7580   13.8350   15.9600 C.3       1 0Q4        -0.0124
     56 CG          6.2780   13.9310   15.6500 C.3       1 0Q4        -0.0491
     57 CD          5.5210   14.9580   16.4760 C.3       1 0Q4        -0.0557
     58 CE          4.2130   15.3710   15.8030 C.3       1 0Q4        -0.0653
     59 NH2        10.0200   12.4820   17.0980 N.am      1 0Q4        -0.2990
     60 H1         24.4753   27.3448   17.4995 H         1 0Q4         0.2015
     61 H2         23.2823   28.4784   17.5334 H         1 0Q4         0.2015
     62 H3         23.5500   27.6060   16.1634 H         1 0Q4         0.2015
     63 H4         22.9201   25.6109   17.1917 H         1 0Q4         0.1098
     64 H5         21.8100   26.9317   19.5809 H         1 0Q4         0.0347
     65 H6         23.6004   27.0251   19.4701 H         1 0Q4         0.0347
     66 H7         21.8174   24.6426   19.7475 H         1 0Q4         0.0302
     67 H8         23.1062   25.2502   20.8414 H         1 0Q4         0.0302
     68 H9         24.0520   24.4108   18.2165 H         1 0Q4         0.0689
     69 H10        23.2333   23.1199   19.1598 H         1 0Q4         0.0689
     70 H11        24.8569   23.4427   20.8711 H         1 0Q4         0.2642
     71 H12        27.6206   24.4849   18.1596 H         1 0Q4         0.2615
     72 H13        25.9042   24.6794   17.7136 H         1 0Q4         0.2615
     73 H14        26.8344   23.1953   21.4166 H         1 0Q4         0.2615
     74 H15        28.1630   23.6335   20.3095 H         1 0Q4         0.2615
     75 H16        21.1519   24.9365   16.4457 H         1 0Q4         0.1885
     76 H17        18.7102   26.6320   16.6361 H         1 0Q4         0.0802
     77 H18        19.5587   24.8942   14.2848 H         1 0Q4         0.0343
     78 H19        17.3971   25.5840   13.2882 H         1 0Q4         0.0234
     79 H20        16.9605   26.4072   14.8239 H         1 0Q4         0.0234
     80 H21        17.1684   24.6233   14.7886 H         1 0Q4         0.0234
     81 H22        20.5960   27.1490   14.3152 H         1 0Q4         0.0234
     82 H23        18.9671   27.8904   14.4696 H         1 0Q4         0.0234
     83 H24        19.4024   26.9800   12.9835 H         1 0Q4         0.0234
     84 H25        17.7582   25.6982   18.2491 H         1 0Q4         0.1857
     85 H26        17.6426   22.7243   18.3818 H         1 0Q4         0.0609
     86 H27        15.3202   24.5931   18.9700 H         1 0Q4         0.0837
     87 H28        15.3339   22.8007   19.0862 H         1 0Q4         0.0837
     88 H29        17.1878   23.2180   20.8216 H         1 0Q4         0.0292
     89 H30        17.5760   24.9325   20.4519 H         1 0Q4         0.0292
     90 H31        19.8289   24.2456   19.7350 H         1 0Q4         0.0296
     91 H32        20.7368   23.6941   21.9587 H         1 0Q4         0.0232
     92 H33        19.0823   23.2948   22.5330 H         1 0Q4         0.0232
     93 H34        19.4833   24.9776   22.0492 H         1 0Q4         0.0232
     94 H35        19.2857   21.9061   19.0852 H         1 0Q4         0.0232
     95 H36        19.0427   21.4956   20.8170 H         1 0Q4         0.0232
     96 H37        20.6667   21.9912   20.2307 H         1 0Q4         0.0232
     97 H38        16.1372   23.0932   16.7903 H         1 0Q4         0.2038
     98 H39        15.3450   24.5309   16.9124 H         1 0Q4         0.2038
     99 H40        13.2941   23.4872   17.2027 H         1 0Q4         0.1123
    100 H41        15.1250   22.9434   14.8790 H         1 0Q4         0.0507
    101 H42        13.6462   23.9588   14.9732 H         1 0Q4         0.0507
    102 H43        11.4269   22.5623   15.3867 H         1 0Q4         0.0557
    103 H44        14.9498   20.9484   13.6708 H         1 0Q4         0.0557
    104 H45        10.1042   20.7473   14.3955 H         1 0Q4         0.0599
    105 H46        13.6497   19.1473   12.6601 H         1 0Q4         0.0599
    106 H47        11.1978   19.0462   12.9581 H         1 0Q4         0.0559
    107 H48        12.1453   21.6146   17.7146 H         1 0Q4         0.1885
    108 H49        13.5180   19.0073   17.4249 H         1 0Q4         0.0801
    109 H50        12.3978   20.0335   20.0606 H         1 0Q4         0.0330
    110 H51        14.1389   19.8522   19.6576 H         1 0Q4         0.0330
    111 H52        13.7870   18.0124   20.9514 H         1 0Q4         0.0433
    112 H53        13.4966   17.3380   19.3121 H         1 0Q4         0.0433
    113 H54        12.0755   17.3175   17.0872 H         1 0Q4         0.1883
    114 H55         9.3128   17.7032   17.9833 H         1 0Q4         0.0797
    115 H56         8.2836   17.2651   15.7826 H         1 0Q4         0.0277
    116 H57         9.9068   17.3365   15.0167 H         1 0Q4         0.0277
    117 H58         9.2163   18.8002   15.7961 H         1 0Q4         0.0277
    118 H59         8.1709   15.9945   18.0128 H         1 0Q4         0.1883
    119 H60         7.1622   14.0760   18.0315 H         1 0Q4         0.0800
    120 H61         8.1126   12.8397   15.6541 H         1 0Q4         0.0312
    121 H62         8.2848   14.6064   15.3792 H         1 0Q4         0.0312
    122 H63         5.8254   12.9449   15.8310 H         1 0Q4         0.0267
    123 H64         6.1669   14.1962   14.5882 H         1 0Q4         0.0267
    124 H65         6.1532   15.8491   16.6035 H         1 0Q4         0.0263
    125 H66         5.2938   14.5255   17.4615 H         1 0Q4         0.0263
    126 H67         3.6964   16.1128   16.4298 H         1 0Q4         0.0230
    127 H68         3.5707   14.4870   15.6764 H         1 0Q4         0.0230
    128 H69         4.4301   15.8106   14.8183 H         1 0Q4         0.0230
    129 H70        10.5965   11.7024   17.3428 H         1 0Q4         0.1815
    130 H71        10.2255   13.0183   16.2794 H         1 0Q4         0.1815
@<TRIPOS>BOND
     1    1    2 1  
     2    2    3 1  
     3    2    5 1  
     4    3    4 2  
     5    3   12 am 
     6    5    6 1  
     7    6    7 1  
     8    7    8 1  
     9    8    9 ar 
    10    9   10 ar 
    11    9   11 ar 
    12   12   13 1  
    13   13   14 1  
    14   13   16 1  
    15   14   15 2  
    16   14   19 am 
    17   16   17 1  
    18   16   18 1  
    19   19   20 1  
    20   20   21 1  
    21   20   22 1  
    22   21   26 1  
    23   22   23 1  
    24   23   24 1  
    25   23   25 1  
    26   26   27 1  
    27   27   28 1  
    28   27   30 1  
    29   28   29 2  
    30   28   37 am 
    31   30   31 1  
    32   31   32 ar 
    33   31   33 ar 
    34   32   34 ar 
    35   33   35 ar 
    36   34   36 ar 
    37   35   36 ar 
    38   37   38 1  
    39   38   39 1  
    40   38   41 1  
    41   39   40 2  
    42   39   46 am 
    43   41   42 1  
    44   42   43 1  
    45   43   44 ar 
    46   43   45 ar 
    47   46   47 1  
    48   47   48 1  
    49   47   50 1  
    50   48   49 2  
    51   48   51 am 
    52   51   52 1  
    53   52   53 1  
    54   52   55 1  
    55   53   54 2  
    56   53   59 am 
    57   55   56 1  
    58   56   57 1  
    59   57   58 1  
    60    1   60 1  
    61    1   61 1  
    62    1   62 1  
    63    2   63 1  
    64    5   64 1  
    65    5   65 1  
    66    6   66 1  
    67    6   67 1  
    68    7   68 1  
    69    7   69 1  
    70    8   70 1  
    71   10   71 1  
    72   10   72 1  
    73   11   73 1  
    74   11   74 1  
    75   12   75 1  
    76   13   76 1  
    77   16   77 1  
    78   17   78 1  
    79   17   79 1  
    80   17   80 1  
    81   18   81 1  
    82   18   82 1  
    83   18   83 1  
    84   19   84 1  
    85   20   85 1  
    86   21   86 1  
    87   21   87 1  
    88   22   88 1  
    89   22   89 1  
    90   23   90 1  
    91   24   91 1  
    92   24   92 1  
    93   24   93 1  
    94   25   94 1  
    95   25   95 1  
    96   25   96 1  
    97   26   97 1  
    98   26   98 1  
    99   27   99 1  
   100   30  100 1  
   101   30  101 1  
   102   32  102 1  
   103   33  103 1  
   104   34  104 1  
   105   35  105 1  
   106   36  106 1  
   107   37  107 1  
   108   38  108 1  
   109   41  109 1  
   110   41  110 1  
   111   42  111 1  
   112   42  112 1  
   113   46  113 1  
   114   47  114 1  
   115   50  115 1  
   116   50  116 1  
   117   50  117 1  
   118   51  118 1  
   119   52  119 1  
   120   55  120 1  
   121   55  121 1  
   122   56  122 1  
   123   56  123 1  
   124   57  124 1  
   125   57  125 1  
   126   58  126 1  
   127   58  127 1  
   128   58  128 1  
   129   59  129 1  
   130   59  130 1  
@<TRIPOS>SUBSTRUCTURE
     1 0Q4         1

