### 
### Created by X-TOOL on Mon Sep 10 21:12:53 2018
### 

@<TRIPOS>MOLECULE
2aog_ligand
  123   122     1     0     0
SMALL
GAST_HUCK


@<TRIPOS>ATOM
      1 C          23.4090   24.3380   19.8370 C.2       1 2NC         0.1752
      2 O          22.9580   24.7500   20.9100 O.2       1 2NC        -0.3972
      3 CH3        24.0730   23.0180   19.6860 C.3       1 2NC         0.0258
      4 N          23.3340   25.1010   18.7410 N.am      1 2NC        -0.2635
      5 CA         22.7820   26.4170   18.7280 C.3       1 2NC         0.1564
      6 C          21.3940   26.5210   18.0600 C.2       1 2NC         0.2065
      7 O          20.7730   27.5990   18.1710 O.2       1 2NC        -0.3943
      8 CB         23.7180   27.4060   18.0150 C.3       1 2NC         0.0924
      9 OG1        23.8990   26.9760   16.6590 O.3       1 2NC        -0.3874
     10 CG2        25.0840   27.4940   18.7170 C.3       1 2NC        -0.0346
     11 N          20.9160   25.4820   17.4120 N.am      1 2NC        -0.2634
     12 CA         19.6290   25.5180   16.7320 C.3       1 2NC         0.1334
     13 C          18.7620   24.4610   17.3580 C.2       1 2NC         0.2023
     14 O          18.7270   23.3020   16.8930 O.2       1 2NC        -0.3945
     15 CB         19.7760   25.3160   15.2160 C.3       1 2NC        -0.0037
     16 CG1        20.8930   26.1790   14.6010 C.3       1 2NC        -0.0491
     17 CG2        18.4710   25.5010   14.5110 C.3       1 2NC        -0.0582
     18 CD1        20.6560   27.6730   14.6740 C.3       1 2NC        -0.0648
     19 N          18.0930   24.7630   18.4100 N.am      1 2NC        -0.2769
     20 CA         17.2900   23.8120   19.1680 C.3       1 2NC         0.0817
     21 C          15.7930   23.9200   18.8920 C.3       1 2NC        -0.0081
     22 CB         17.5910   23.9840   20.6610 C.3       1 2NC        -0.0249
     23 CG         19.0510   24.0060   21.0530 C.3       1 2NC        -0.0510
     24 CD         19.7750   22.7310   20.7080 C.3       1 2NC        -0.0558
     25 CE         19.1800   21.4920   21.3350 C.3       1 2NC        -0.0653
     26 N          15.4740   23.7520   17.5080 N.4       1 2NC         0.2477
     27 CA         14.2570   23.0180   17.1030 C.3       1 2NC         0.0668
     28 C          14.2740   21.6000   17.5980 C.2       1 2NC         0.2268
     29 O          15.2960   20.8920   17.5240 O.2       1 2NC        -0.3907
     30 CB         14.1960   22.9420   15.5960 C.3       1 2NC         0.0079
     31 CG         12.9430   22.4340   14.9470 C.3       1 2NC        -0.0460
     32 CD         13.1020   21.0100   14.4430 C.3       1 2NC        -0.0556
     33 CE         14.2020   20.8320   13.4250 C.3       1 2NC        -0.0653
     34 N          13.1400   21.1090   18.0520 N.am      1 2NC        -0.2609
     35 CA         13.0220   19.7230   18.4990 C.3       1 2NC         0.1331
     36 C          11.6150   19.2450   18.1490 C.2       1 2NC         0.2040
     37 O          10.6170   19.9110   18.4430 O.2       1 2NC        -0.3944
     38 CB         13.3860   19.5640   19.9510 C.3       1 2NC         0.0045
     39 CG         13.1930   18.1750   20.5100 C.3       1 2NC         0.0412
     40 CD         11.7850   17.8930   20.9980 C.2       1 2NC         0.1737
     41 OE1        11.0950   18.7940   21.3860 O.2       1 2NC        -0.3973
     42 NE2        11.3560   16.6490   20.9500 N.am      1 2NC        -0.3009
     43 N          11.5370   18.0240   17.6610 N.am      1 2NC        -0.2637
     44 CA         10.2990   17.4130   17.2790 C.3       1 2NC         0.1307
     45 C          10.1980   16.0410   17.9470 C.2       1 2NC         0.1992
     46 O          11.1370   15.2490   17.9860 O.2       1 2NC        -0.3947
     47 CB         10.2390   17.1850   15.7790 C.3       1 2NC        -0.0092
     48 CG         10.1700   18.4620   14.9970 C.3       1 2NC        -0.0156
     49 CD         10.3350   18.2120   13.5210 C.3       1 2NC         0.0627
     50 NE          9.7860   19.3600   12.7800 N.pl3     1 2NC        -0.2723
     51 CZ          9.5980   19.3840   11.4910 C.cat     1 2NC         0.2882
     52 NH1         9.9970   18.3230   10.7800 N.pl3     1 2NC        -0.2849
     53 NH2         9.0520   20.4440   10.8900 N.pl3     1 2NC        -0.2849
     54 N           8.9430   15.7370   18.4710 N.am      1 2NC        -0.2990
     55 H1         24.3860   22.8825   18.6402 H         1 2NC         0.0467
     56 H2         23.3694   22.2196   19.9645 H         1 2NC         0.0467
     57 H3         24.9554   22.9743   20.3413 H         1 2NC         0.0467
     58 H4         23.6846   24.7282   17.8819 H         1 2NC         0.1883
     59 H5         22.6750   26.7332   19.7761 H         1 2NC         0.0826
     60 H6         23.2534   28.4031   18.0204 H         1 2NC         0.0639
     61 H7         24.4767   27.5820   16.2102 H         1 2NC         0.2101
     62 H8         25.7261   28.2087   18.1813 H         1 2NC         0.0257
     63 H9         25.5603   26.5025   18.7180 H         1 2NC         0.0257
     64 H10        24.9424   27.8339   19.7535 H         1 2NC         0.0257
     65 H11        21.4538   24.6394   17.3852 H         1 2NC         0.1883
     66 H12        19.1662   26.5018   16.8993 H         1 2NC         0.0802
     67 H13        20.0726   24.2675   15.0656 H         1 2NC         0.0345
     68 H14        20.9964   25.9006   13.5419 H         1 2NC         0.0267
     69 H15        21.8299   25.9551   15.1322 H         1 2NC         0.0267
     70 H16        17.7060   24.8671   14.9833 H         1 2NC         0.0235
     71 H17        18.5815   25.2164   13.4542 H         1 2NC         0.0235
     72 H18        18.1650   26.5555   14.5767 H         1 2NC         0.0235
     73 H19        21.5029   28.2016   14.2120 H         1 2NC         0.0230
     74 H20        20.5633   27.9786   15.7266 H         1 2NC         0.0230
     75 H21        19.7298   27.9241   14.1363 H         1 2NC         0.0230
     76 H22        18.1244   25.7099   18.7299 H         1 2NC         0.1857
     77 H23        17.6033   22.8004   18.8706 H         1 2NC         0.0609
     78 H24        15.4461   24.9126   19.2152 H         1 2NC         0.0837
     79 H25        15.2715   23.1431   19.4702 H         1 2NC         0.0837
     80 H26        17.1128   23.1510   21.1972 H         1 2NC         0.0289
     81 H27        17.1428   24.9346   20.9857 H         1 2NC         0.0289
     82 H28        19.1194   24.1643   22.1394 H         1 2NC         0.0266
     83 H29        19.5415   24.8397   20.5293 H         1 2NC         0.0266
     84 H30        20.8171   22.8232   21.0479 H         1 2NC         0.0263
     85 H31        19.7553   22.6080   19.6151 H         1 2NC         0.0263
     86 H32        19.7656   20.6111   21.0333 H         1 2NC         0.0230
     87 H33        18.1397   21.3737   20.9977 H         1 2NC         0.0230
     88 H34        19.2015   21.5889   22.4305 H         1 2NC         0.0230
     89 H35        16.2543   23.2716   17.0879 H         1 2NC         0.2036
     90 H36        15.3977   24.6770   17.1148 H         1 2NC         0.2036
     91 H37        13.3715   23.5397   17.4951 H         1 2NC         0.1099
     92 H38        15.0166   22.2850   15.2722 H         1 2NC         0.0346
     93 H39        14.3681   23.9591   15.2140 H         1 2NC         0.0346
     94 H40        12.6935   23.0860   14.0969 H         1 2NC         0.0269
     95 H41        12.1255   22.4614   15.6825 H         1 2NC         0.0269
     96 H42        12.1526   20.6992   13.9825 H         1 2NC         0.0263
     97 H43        13.3213   20.3619   15.3043 H         1 2NC         0.0263
     98 H44        14.2478   19.7775   13.1153 H         1 2NC         0.0230
     99 H45        15.1643   21.1257   13.8697 H         1 2NC         0.0230
    100 H46        13.9956   21.4630   12.5480 H         1 2NC         0.0230
    101 H47        12.3358   21.7020   18.0921 H         1 2NC         0.1885
    102 H48        13.7352   19.1150   17.9232 H         1 2NC         0.0801
    103 H49        12.7635   20.2567   20.5364 H         1 2NC         0.0337
    104 H50        14.4457   19.8346   20.0685 H         1 2NC         0.0337
    105 H51        13.8842   18.0440   21.3556 H         1 2NC         0.0504
    106 H52        13.4369   17.4483   19.7211 H         1 2NC         0.0504
    107 H53        10.4330   16.4260   21.2634 H         1 2NC         0.1814
    108 H54        11.9533   15.9273   20.6001 H         1 2NC         0.1814
    109 H55        12.3813   17.4992   17.5521 H         1 2NC         0.1883
    110 H56         9.4614   18.0532   17.5930 H         1 2NC         0.0800
    111 H57         9.3458   16.5850   15.5506 H         1 2NC         0.0313
    112 H58        11.1397   16.6335   15.4715 H         1 2NC         0.0313
    113 H59        10.9712   19.1342   15.3379 H         1 2NC         0.0301
    114 H60         9.1935   18.9369   15.1725 H         1 2NC         0.0301
    115 H61         9.7939   17.2969   13.2384 H         1 2NC         0.0689
    116 H62        11.4026   18.0950   13.2831 H         1 2NC         0.0689
    117 H63         9.5333   20.2015   13.3175 H         1 2NC         0.2642
    118 H64         9.8640   18.3079    9.7587 H         1 2NC         0.2615
    119 H65        10.4371   17.5214   11.2540 H         1 2NC         0.2615
    120 H66         8.7493   21.2540   11.4495 H         1 2NC         0.2615
    121 H67         8.9336   20.4516    9.8669 H         1 2NC         0.2615
    122 H68         8.7901   14.8594   18.9253 H         1 2NC         0.1815
    123 H69         8.1954   16.3965   18.3928 H         1 2NC         0.1815
@<TRIPOS>BOND
     1    1    2 2  
     2    1    3 1  
     3    1    4 am 
     4    4    5 1  
     5    5    6 1  
     6    5    8 1  
     7    6    7 2  
     8    6   11 am 
     9    8    9 1  
    10    8   10 1  
    11   11   12 1  
    12   12   13 1  
    13   12   15 1  
    14   13   14 2  
    15   13   19 am 
    16   15   16 1  
    17   15   17 1  
    18   16   18 1  
    19   19   20 1  
    20   20   21 1  
    21   20   22 1  
    22   21   26 1  
    23   22   23 1  
    24   23   24 1  
    25   24   25 1  
    26   26   27 1  
    27   27   28 1  
    28   27   30 1  
    29   28   29 2  
    30   28   34 am 
    31   30   31 1  
    32   31   32 1  
    33   32   33 1  
    34   34   35 1  
    35   35   36 1  
    36   35   38 1  
    37   36   37 2  
    38   36   43 am 
    39   38   39 1  
    40   39   40 1  
    41   40   41 2  
    42   40   42 am 
    43   43   44 1  
    44   44   45 1  
    45   44   47 1  
    46   45   46 2  
    47   45   54 am 
    48   47   48 1  
    49   48   49 1  
    50   49   50 1  
    51   50   51 ar 
    52   51   52 ar 
    53   51   53 ar 
    54    3   55 1  
    55    3   56 1  
    56    3   57 1  
    57    4   58 1  
    58    5   59 1  
    59    8   60 1  
    60    9   61 1  
    61   10   62 1  
    62   10   63 1  
    63   10   64 1  
    64   11   65 1  
    65   12   66 1  
    66   15   67 1  
    67   16   68 1  
    68   16   69 1  
    69   17   70 1  
    70   17   71 1  
    71   17   72 1  
    72   18   73 1  
    73   18   74 1  
    74   18   75 1  
    75   19   76 1  
    76   20   77 1  
    77   21   78 1  
    78   21   79 1  
    79   22   80 1  
    80   22   81 1  
    81   23   82 1  
    82   23   83 1  
    83   24   84 1  
    84   24   85 1  
    85   25   86 1  
    86   25   87 1  
    87   25   88 1  
    88   26   89 1  
    89   26   90 1  
    90   27   91 1  
    91   30   92 1  
    92   30   93 1  
    93   31   94 1  
    94   31   95 1  
    95   32   96 1  
    96   32   97 1  
    97   33   98 1  
    98   33   99 1  
    99   33  100 1  
   100   34  101 1  
   101   35  102 1  
   102   38  103 1  
   103   38  104 1  
   104   39  105 1  
   105   39  106 1  
   106   42  107 1  
   107   42  108 1  
   108   43  109 1  
   109   44  110 1  
   110   47  111 1  
   111   47  112 1  
   112   48  113 1  
   113   48  114 1  
   114   49  115 1  
   115   49  116 1  
   116   50  117 1  
   117   52  118 1  
   118   52  119 1  
   119   53  120 1  
   120   53  121 1  
   121   54  122 1  
   122   54  123 1  
@<TRIPOS>SUBSTRUCTURE
     1 2NC         1

