### 
### Created by X-TOOL on Mon Sep 10 21:12:53 2018
### 

@<TRIPOS>MOLECULE
2aov_ligand
   27    28     1     0     0
SMALL
GAST_HUCK


@<TRIPOS>ATOM
      1 N1         43.5450  -32.7960   -5.1450 N.ar      1 C2M        -0.2721
      2 C2         43.7500  -31.8430   -4.1540 C.ar      1 C2M         0.1633
      3 N2         43.3610  -32.1760   -2.8850 N.ar      1 C2M        -0.2495
      4 C3         42.7850  -33.3930   -2.5640 C.ar      1 C2M         0.1137
      5 C4         42.5230  -34.4560   -3.5710 C.ar      1 C2M         0.0395
      6 C5         42.9590  -34.0470   -4.8990 C.ar      1 C2M         0.0238
      7 C6         41.8980  -35.7450   -3.2280 C.ar      1 C2M        -0.0230
      8 C7         40.4320  -35.7700   -3.0100 C.ar      1 C2M        -0.0454
      9 C8         39.7500  -37.0130   -2.6520 C.ar      1 C2M         0.0508
     10 C9         40.5580  -38.3030   -2.4970 C.ar      1 C2M         0.0505
     11 C10        42.0170  -38.2860   -2.7190 C.ar      1 C2M        -0.0510
     12 C11        42.6820  -37.0100   -3.0840 C.ar      1 C2M        -0.0592
     13 N3         44.3390  -30.5340   -4.4350 N.pl3     1 C2M        -0.3071
     14 N4         42.4460  -33.5760   -1.1910 N.pl3     1 C2M        -0.3173
     15 C12        42.8540  -34.8450   -6.1550 C.3       1 C2M        -0.0149
     16 CL1        39.8860  -39.7840   -2.0590 Cl        1 C2M        -0.0731
     17 CL2        38.0910  -36.8700   -2.4440 Cl        1 C2M        -0.0710
     18 H1         39.8588  -34.8562   -3.1172 H         1 C2M         0.0594
     19 H2         42.5971  -39.1960   -2.6166 H         1 C2M         0.0613
     20 H3         43.7533  -36.9951   -3.2488 H         1 C2M         0.0589
     21 H4         44.6281  -30.2945   -5.3942 H         1 C2M         0.1830
     22 H5         44.4647  -29.8517   -3.6737 H         1 C2M         0.1830
     23 H6         42.0138  -34.4578   -0.8804 H         1 C2M         0.1818
     24 H7         42.6334  -32.8264   -0.5099 H         1 C2M         0.1818
     25 H8         42.3923  -35.8185   -5.9334 H         1 C2M         0.0443
     26 H9         43.8586  -35.0027   -6.5743 H         1 C2M         0.0443
     27 H10        42.2336  -34.3023   -6.8835 H         1 C2M         0.0443
@<TRIPOS>BOND
     1    1    2 ar 
     2    1    6 ar 
     3    2    3 ar 
     4    2   13 1  
     5    3    4 ar 
     6    4    5 ar 
     7    4   14 1  
     8    5    6 ar 
     9    5    7 1  
    10    6   15 1  
    11    7    8 ar 
    12    7   12 ar 
    13    8    9 ar 
    14    9   10 ar 
    15    9   17 1  
    16   10   11 ar 
    17   10   16 1  
    18   11   12 ar 
    19    8   18 1  
    20   11   19 1  
    21   12   20 1  
    22   13   21 1  
    23   13   22 1  
    24   14   23 1  
    25   14   24 1  
    26   15   25 1  
    27   15   26 1  
    28   15   27 1  
@<TRIPOS>SUBSTRUCTURE
     1 C2M         1

