### 
### Created by X-TOOL on Mon Sep 10 21:12:53 2018
### 

@<TRIPOS>MOLECULE
2aow_ligand
   29    31     1     0     0
SMALL
GAST_HUCK


@<TRIPOS>ATOM
      1 C1         52.1450   -6.0350   31.2170 C.3       1 THA        -0.0400
      2 C2         51.9390   -7.5870   31.5160 C.3       1 THA        -0.0081
      3 C3         52.5520   -8.5520   30.4780 C.ar      1 THA         0.0105
      4 C4         53.2010   -8.0970   29.1830 C.ar      1 THA         0.0052
      5 C5         53.2760   -6.5890   28.9050 C.3       1 THA        -0.0210
      6 C6         52.3210   -5.6420   29.7310 C.3       1 THA        -0.0439
      7 N7         52.4600   -9.8980   30.8010 N.ar      1 THA        -0.3281
      8 C8         52.9120  -10.9630   29.8790 C.ar      1 THA         0.0179
      9 C9         53.5860  -10.5440   28.5470 C.ar      1 THA         0.0195
     10 C10        53.7380   -9.1000   28.2080 C.ar      1 THA         0.0665
     11 C11        52.7100  -12.3470   30.2650 C.ar      1 THA        -0.0521
     12 C12        53.1610  -13.3640   29.3680 C.ar      1 THA        -0.0640
     13 C13        53.8300  -12.9660   28.0750 C.ar      1 THA        -0.0632
     14 C14        54.0470  -11.5890   27.6510 C.ar      1 THA        -0.0528
     15 N15        54.3850   -8.7090   26.9110 N.pl3     1 THA        -0.3283
     16 H1         53.0431   -5.7052   31.7597 H         1 THA         0.0292
     17 H2         51.2655   -5.4993   31.6036 H         1 THA         0.0292
     18 H3         50.8575   -7.7823   31.5627 H         1 THA         0.0453
     19 H4         52.3939   -7.8070   32.4930 H         1 THA         0.0453
     20 H5         53.0457   -6.4395   27.8398 H         1 THA         0.0386
     21 H6         54.3092   -6.2691   29.1052 H         1 THA         0.0386
     22 H7         52.7331   -4.6228   29.6930 H         1 THA         0.0284
     23 H8         51.3300   -5.6548   29.2538 H         1 THA         0.0284
     24 H9         52.2321  -12.6015   31.2041 H         1 THA         0.0590
     25 H10        53.0240  -14.4108   29.6138 H         1 THA         0.0621
     26 H11        54.1719  -13.7574   27.4179 H         1 THA         0.0585
     27 H12        54.5306  -11.3555   26.7094 H         1 THA         0.0636
     28 H13        54.4938   -7.7137   26.6692 H         1 THA         0.1779
     29 H14        54.7201   -9.4360   26.2629 H         1 THA         0.1779
@<TRIPOS>BOND
     1    1    2 1  
     2    1    6 1  
     3    2    3 1  
     4    3    4 ar 
     5    3    7 ar 
     6    4    5 1  
     7    4   10 ar 
     8    5    6 1  
     9    7    8 ar 
    10    8    9 ar 
    11    8   11 ar 
    12    9   10 ar 
    13    9   14 ar 
    14   10   15 1  
    15   11   12 ar 
    16   12   13 ar 
    17   13   14 ar 
    18    1   16 1  
    19    1   17 1  
    20    2   18 1  
    21    2   19 1  
    22    5   20 1  
    23    5   21 1  
    24    6   22 1  
    25    6   23 1  
    26   11   24 1  
    27   12   25 1  
    28   13   26 1  
    29   14   27 1  
    30   15   28 1  
    31   15   29 1  
@<TRIPOS>SUBSTRUCTURE
     1 THA         1

