### 
### Created by X-TOOL on Mon Sep 10 21:12:53 2018
### 

@<TRIPOS>MOLECULE
2aox_ligand
   29    31     1     0     0
SMALL
GAST_HUCK


@<TRIPOS>ATOM
      1 C1         51.8020   -5.6770   30.6340 C.3       1 THA        -0.0400
      2 C2         51.6420   -7.1800   31.2170 C.3       1 THA        -0.0081
      3 C3         52.0990   -8.2670   30.2830 C.ar      1 THA         0.0105
      4 C4         52.8870   -7.9830   29.0650 C.ar      1 THA         0.0052
      5 C5         53.2950   -6.5630   28.6640 C.3       1 THA        -0.0210
      6 C6         52.9660   -5.3990   29.6420 C.3       1 THA        -0.0439
      7 N7         51.7520   -9.5340   30.6130 N.ar      1 THA        -0.3281
      8 C8         52.1910  -10.7210   29.7860 C.ar      1 THA         0.0179
      9 C9         52.9800  -10.4410   28.5340 C.ar      1 THA         0.0195
     10 C10        53.3020   -9.0660   28.1970 C.ar      1 THA         0.0665
     11 C11        51.8670  -12.1120   30.1510 C.ar      1 THA        -0.0521
     12 C12        52.3090  -13.1960   29.3010 C.ar      1 THA        -0.0640
     13 C13        53.0730  -12.8760   28.0910 C.ar      1 THA        -0.0632
     14 C14        53.4090  -11.5310   27.7040 C.ar      1 THA        -0.0528
     15 N15        54.0600   -8.7480   26.9680 N.pl3     1 THA        -0.3283
     16 H1         51.9380   -5.0052   31.4943 H         1 THA         0.0292
     17 H2         50.8644   -5.4252   30.1168 H         1 THA         0.0292
     18 H3         50.5791   -7.3481   31.4447 H         1 THA         0.0453
     19 H4         52.2314   -7.2533   32.1428 H         1 THA         0.0453
     20 H5         52.7964   -6.3377   27.7097 H         1 THA         0.0386
     21 H6         54.3850   -6.5664   28.5163 H         1 THA         0.0386
     22 H7         53.8701   -5.1829   30.2301 H         1 THA         0.0284
     23 H8         52.6988   -4.5162   29.0426 H         1 THA         0.0284
     24 H9         51.3007  -12.3215   31.0513 H         1 THA         0.0590
     25 H10        52.0798  -14.2249   29.5537 H         1 THA         0.0621
     26 H11        53.4007  -13.6921   27.4572 H         1 THA         0.0585
     27 H12        53.9771  -11.3440   26.7999 H         1 THA         0.0636
     28 H13        54.2827   -7.7687   26.7392 H         1 THA         0.1779
     29 H14        54.3653   -9.5057   26.3407 H         1 THA         0.1779
@<TRIPOS>BOND
     1    1    2 1  
     2    1    6 1  
     3    2    3 1  
     4    3    4 ar 
     5    3    7 ar 
     6    4    5 1  
     7    4   10 ar 
     8    5    6 1  
     9    7    8 ar 
    10    8    9 ar 
    11    8   11 ar 
    12    9   10 ar 
    13    9   14 ar 
    14   10   15 1  
    15   11   12 ar 
    16   12   13 ar 
    17   13   14 ar 
    18    1   16 1  
    19    1   17 1  
    20    2   18 1  
    21    2   19 1  
    22    5   20 1  
    23    5   21 1  
    24    6   22 1  
    25    6   23 1  
    26   11   24 1  
    27   12   25 1  
    28   13   26 1  
    29   14   27 1  
    30   15   28 1  
    31   15   29 1  
@<TRIPOS>SUBSTRUCTURE
     1 THA         1

