### 
### Created by X-TOOL on Mon Sep 10 21:12:54 2018
### 

@<TRIPOS>MOLECULE
2aq7_ligand
   31    31     1     0     0
SMALL
GAST_HUCK


@<TRIPOS>ATOM
      1 O1         22.1480   87.6940    0.9150 O.2       1 TL5        -0.3592
      2 C1         22.9200   88.6240    1.0870 C.2       1 TL5         0.1861
      3 C2         23.2540   89.0800    2.2900 C.2       1 TL5         0.0554
      4 C9         22.6340   88.5620    3.5550 C.3       1 TL5        -0.0099
      5 S1         23.6250   89.4110   -0.2000 S.3       1 TL5        -0.1498
      6 C4         24.4690   90.5370    0.8680 C.3       1 TL5        -0.0114
      7 C3         24.1710   90.0360    2.2570 C.2       1 TL5         0.0329
      8 O2         24.7800   90.5040    3.3460 O.3       1 TL5        -0.3523
      9 C10        23.9290   91.9580    0.7290 C.3       1 TL5        -0.1147
     10 C5         25.9640   90.4880    0.6030 C.2       1 TL5        -0.1286
     11 C6         26.5520   90.7770   -0.5790 C.2       1 TL5        -0.0292
     12 C11        25.8180   91.2110   -1.8240 C.3       1 TL5        -0.0084
     13 C7         28.0250   90.6920   -0.6220 C.2       1 TL5        -0.0062
     14 C8         28.7210   91.0360   -1.7040 C.2       1 TL5        -0.0255
     15 C12        30.2190   90.9570   -1.6720 C.3       1 TL5        -0.0049
     16 H1         21.9056   87.7747    3.3107 H         1 TL5         0.0463
     17 H2         22.1233   89.3848    4.0767 H         1 TL5         0.0463
     18 H3         23.4186   88.1468    4.2046 H         1 TL5         0.0463
     19 H4         24.4455   90.0538    4.1127 H         1 TL5         0.2471
     20 H5         24.4783   92.6270    1.4078 H         1 TL5         0.0003
     21 H6         22.8598   91.9709    0.9873 H         1 TL5         0.0003
     22 H7         24.0598   92.3002   -0.3082 H         1 TL5         0.0003
     23 H8         26.6117   90.1977    1.4289 H         1 TL5         0.0288
     24 H9         26.5408   91.3790   -2.6360 H         1 TL5         0.0520
     25 H10        25.2713   92.1437   -1.6210 H         1 TL5         0.0520
     26 H11        25.1069   90.4267   -2.1226 H         1 TL5         0.0520
     27 H12        28.5590   90.3370    0.2582 H         1 TL5         0.0637
     28 H13        28.2076   91.3716   -2.6038 H         1 TL5         0.1211
     29 H14        30.6238   91.2760   -2.6438 H         1 TL5         0.0563
     30 H15        30.5273   89.9209   -1.4687 H         1 TL5         0.0563
     31 H16        30.6041   91.6163   -0.8802 H         1 TL5         0.0563
@<TRIPOS>BOND
     1    1    2 2  
     2    2    3 1  
     3    2    5 1  
     4    3    4 1  
     5    3    7 2  
     6    5    6 1  
     7    6    7 1  
     8    6    9 1  
     9    6   10 1  
    10    7    8 1  
    11   10   11 2  
    12   11   12 1  
    13   11   13 1  
    14   13   14 2  
    15   14   15 1  
    16    4   16 1  
    17    4   17 1  
    18    4   18 1  
    19    8   19 1  
    20    9   20 1  
    21    9   21 1  
    22    9   22 1  
    23   10   23 1  
    24   12   24 1  
    25   12   25 1  
    26   12   26 1  
    27   13   27 1  
    28   14   28 1  
    29   15   29 1  
    30   15   30 1  
    31   15   31 1  
@<TRIPOS>SUBSTRUCTURE
     1 TL5         1

