### 
### Created by X-TOOL on Mon Sep 10 21:12:54 2018
### 

@<TRIPOS>MOLECULE
2aqb_ligand
   25    25     1     0     0
SMALL
GAST_HUCK


@<TRIPOS>ATOM
      1 O1         22.2660   88.0160    1.1160 O.2       1 TL6        -0.3494
      2 C1         23.0760   88.9270    1.1820 C.2       1 TL6         0.2020
      3 S1         23.8050   89.5290   -0.1930 S.3       1 TL6        -0.1348
      4 C4         24.6930   90.7300    0.7510 C.3       1 TL6         0.0086
      5 C10        24.1800   92.1180    0.3990 C.3       1 TL6        -0.1067
      6 C3         24.3800   90.4160    2.1900 C.2       1 TL6         0.0538
      7 O2         25.0050   91.0010    3.2170 O.3       1 TL6        -0.3464
      8 C2         23.4360   89.4940    2.3300 C.2       1 TL6         0.0740
      9 C9         22.8240   89.1300    3.6500 C.3       1 TL6        -0.0003
     10 C5         26.1890   90.6170    0.5240 C.2       1 TL6        -0.1173
     11 C6         26.7320   90.4520   -0.6830 C.2       1 TL6        -0.0397
     12 C7         28.1870   90.3500   -0.8030 C.2       1 TL6        -0.0159
     13 C8         28.8330   90.9270   -1.8010 C.2       1 TL6        -0.0540
     14 H1         24.7290   92.8709    0.9836 H         1 TL6         0.0022
     15 H2         23.1072   92.1827    0.6332 H         1 TL6         0.0022
     16 H3         24.3329   92.3042   -0.6743 H         1 TL6         0.0022
     17 H4         24.6575   90.6608    4.0331 H         1 TL6         0.2485
     18 H5         22.0697   88.3435    3.5000 H         1 TL6         0.0509
     19 H6         22.3457   90.0176    4.0897 H         1 TL6         0.0509
     20 H7         23.6077   88.7618    4.3284 H         1 TL6         0.0509
     21 H8         26.8505   90.6733    1.3872 H         1 TL6         0.0424
     22 H9         26.1005   90.3939   -1.5683 H         1 TL6         0.1041
     23 H10        28.7472   89.7887   -0.0567 H         1 TL6         0.0764
     24 H11        29.9161   90.8389   -1.8718 H         1 TL6         0.0978
     25 H12        28.2822   91.4906   -2.5526 H         1 TL6         0.0978
@<TRIPOS>BOND
     1    1    2 2  
     2    2    3 1  
     3    2    8 1  
     4    3    4 1  
     5    4    5 1  
     6    4    6 1  
     7    4   10 1  
     8    6    7 1  
     9    6    8 2  
    10    8    9 1  
    11   10   11 2  
    12   11   12 1  
    13   12   13 2  
    14    5   14 1  
    15    5   15 1  
    16    5   16 1  
    17    7   17 1  
    18    9   18 1  
    19    9   19 1  
    20    9   20 1  
    21   10   21 1  
    22   11   22 1  
    23   12   23 1  
    24   13   24 1  
    25   13   25 1  
@<TRIPOS>SUBSTRUCTURE
     1 TL6         1

