### 
### Created by X-TOOL on Mon Sep 10 21:12:54 2018
### 

@<TRIPOS>MOLECULE
2aqu_ligand
  104   106     1     0     0
SMALL
GAST_HUCK


@<TRIPOS>ATOM
      1 CAA       -45.0210   66.8550   34.7460 C.3       1 DR7         0.0663
      2 OBI       -43.8670   66.7520   33.9760 O.3       1 DR7        -0.2672
      3 CBK       -43.1830   67.9500   33.6470 C.2       1 DR7         0.3216
      4 OAI       -43.6320   68.9740   34.0370 O.2       1 DR7        -0.3774
      5 N         -41.8900   67.7960   32.8730 N.am      1 DR7        -0.2407
      6 CA        -41.4390   69.1780   32.8030 C.3       1 DR7         0.1375
      7 CB        -40.1190   69.3160   33.4190 C.3       1 DR7         0.0025
      8 CAE       -39.3070   68.0220   33.5070 C.3       1 DR7        -0.0558
      9 CG2       -40.4890   69.7990   34.7420 C.3       1 DR7        -0.0558
     10 CG1       -39.2710   70.4060   32.8270 C.3       1 DR7        -0.0558
     11 C         -41.0630   68.9260   31.1660 C.2       1 DR7         0.2026
     12 O         -40.2980   68.1220   30.8040 O.2       1 DR7        -0.3945
     13 NBG       -41.7600   69.6930   30.3810 N.am      1 DR7        -0.2773
     14 CBT       -41.7920   69.7640   28.9370 C.3       1 DR7         0.0823
     15 CBA       -43.1110   69.1810   28.5780 C.3       1 DR7         0.0066
     16 CBO       -43.4340   67.8420   29.1750 C.ar      1 DR7        -0.0408
     17 CAT       -42.9210   66.6620   28.7080 C.ar      1 DR7        -0.0603
     18 CAP       -43.2470   65.4620   29.3210 C.ar      1 DR7        -0.0686
     19 CAN       -44.1050   65.4320   30.4300 C.ar      1 DR7        -0.0687
     20 CAQ       -44.6220   66.5990   30.8970 C.ar      1 DR7        -0.0686
     21 CAU       -44.2820   67.7960   30.2760 C.ar      1 DR7        -0.0603
     22 CBS       -41.7090   71.1310   28.3130 C.3       1 DR7         0.1201
     23 OAM       -42.5190   72.0820   28.8920 O.3       1 DR7        -0.3840
     24 CBC       -40.5340   71.9140   28.4970 C.3       1 DR7         0.0233
     25 NBW       -39.3690   71.4510   27.7980 N.4       1 DR7         0.3820
     26 NBH       -39.3260   70.9700   26.4690 N.am      1 DR7        -0.2493
     27 CBN       -39.1420   69.8930   25.7680 C.2       1 DR7         0.2392
     28 OAL       -38.9260   68.8230   26.1450 O.2       1 DR7        -0.3898
     29 CBV       -39.1960   70.2620   24.3010 C.3       1 DR7         0.1419
     30 CBY       -40.0060   69.3460   23.3680 C.3       1 DR7         0.0027
     31 CAH       -40.1780   70.0150   22.0300 C.3       1 DR7        -0.0558
     32 CAF       -41.3840   69.1140   23.9010 C.3       1 DR7        -0.0558
     33 CAG       -39.3070   68.0320   23.1910 C.3       1 DR7        -0.0558
     34 NBF       -37.8290   70.4700   23.8110 N.am      1 DR7        -0.2405
     35 CBL       -37.3500   71.4990   23.1780 C.2       1 DR7         0.3216
     36 OAJ       -37.9470   72.4590   22.8800 O.2       1 DR7        -0.3774
     37 OBJ       -35.9760   71.4210   22.8170 O.3       1 DR7        -0.2672
     38 CAB       -35.3470   72.5670   22.3190 C.3       1 DR7         0.0663
     39 CBB       -38.0910   71.6970   28.4680 C.3       1 DR7         0.0280
     40 CBP       -36.8610   71.4480   27.6420 C.ar      1 DR7         0.0049
     41 CAW       -36.2500   72.3820   26.7990 C.ar      1 DR7        -0.0520
     42 CAY       -35.0870   72.0460   26.0900 C.ar      1 DR7        -0.0565
     43 CAX       -36.3230   70.1990   27.7600 C.ar      1 DR7        -0.0520
     44 CAZ       -35.2010   69.8820   27.0650 C.ar      1 DR7        -0.0565
     45 CBQ       -34.5660   70.7800   26.2330 C.ar      1 DR7        -0.0068
     46 CBR       -33.4380   70.2880   25.6040 C.ar      1 DR7         0.0481
     47 CAV       -33.0370   68.9280   25.8390 C.ar      1 DR7        -0.0287
     48 CAR       -31.9230   68.3400   25.2540 C.ar      1 DR7        -0.0433
     49 CAO       -31.1850   69.0980   24.4140 C.ar      1 DR7        -0.0355
     50 CAS       -31.5720   70.4110   24.1770 C.ar      1 DR7         0.0086
     51 NBD       -32.6590   70.9930   24.7430 N.ar      1 DR7        -0.2940
     52 H1        -45.4374   65.8516   34.9185 H         1 DR7         0.0575
     53 H2        -45.7611   67.4730   34.2166 H         1 DR7         0.0575
     54 H3        -44.7770   67.3217   35.7117 H         1 DR7         0.0575
     55 H4        -41.4622   66.9688   32.5088 H         1 DR7         0.1899
     56 H5        -42.1597   69.9626   33.0768 H         1 DR7         0.0804
     57 H6        -38.3369   68.2295   33.9821 H         1 DR7         0.0237
     58 H7        -39.1419   67.6232   32.4952 H         1 DR7         0.0237
     59 H8        -39.8585   67.2831   34.1069 H         1 DR7         0.0237
     60 H9        -41.0701   70.7278   34.6439 H         1 DR7         0.0237
     61 H10       -39.5793   69.9959   35.3282 H         1 DR7         0.0237
     62 H11       -41.0972   69.0383   35.2533 H         1 DR7         0.0237
     63 H12       -38.9492   70.1125   31.8169 H         1 DR7         0.0237
     64 H13       -38.3867   70.5678   33.4609 H         1 DR7         0.0237
     65 H14       -39.8562   71.3356   32.7697 H         1 DR7         0.0237
     66 H15       -42.3689   70.3337   30.8487 H         1 DR7         0.1857
     67 H16       -40.9715   69.1529   28.5329 H         1 DR7         0.0606
     68 H17       -43.1437   69.0760   27.4835 H         1 DR7         0.0449
     69 H18       -43.8888   69.8882   28.9020 H         1 DR7         0.0449
     70 H19       -42.2550   66.6658   27.8527 H         1 DR7         0.0557
     71 H20       -42.8337   64.5357   28.9385 H         1 DR7         0.0599
     72 H21       -44.3524   64.4911   30.9081 H         1 DR7         0.0559
     73 H22       -45.2944   66.5968   31.7473 H         1 DR7         0.0599
     74 H23       -44.6910   68.7225   30.6625 H         1 DR7         0.0557
     75 H24       -41.9292   71.0039   27.2428 H         1 DR7         0.0672
     76 H25       -42.4058   72.9101   28.4405 H         1 DR7         0.2101
     77 H26       -40.3010   71.9287   29.5719 H         1 DR7         0.0849
     78 H27       -40.7508   72.9367   28.1547 H         1 DR7         0.0849
     79 H28       -39.4667   70.5188   28.1688 H         1 DR7         0.2323
     80 H29       -39.4995   71.7327   25.8459 H         1 DR7         0.2384
     81 H30       -39.7022   71.2376   24.2574 H         1 DR7         0.0806
     82 H31       -40.7574   69.3589   21.3638 H         1 DR7         0.0237
     83 H32       -39.1899   70.2074   21.5865 H         1 DR7         0.0237
     84 H33       -40.7124   70.9673   22.1622 H         1 DR7         0.0237
     85 H34       -41.3193   68.6241   24.8838 H         1 DR7         0.0237
     86 H35       -41.9423   68.4695   23.2061 H         1 DR7         0.0237
     87 H36       -41.9039   70.0777   24.0053 H         1 DR7         0.0237
     88 H37       -38.2940   68.2055   22.7990 H         1 DR7         0.0237
     89 H38       -39.8723   67.4084   22.4829 H         1 DR7         0.0237
     90 H39       -39.2416   67.5178   24.1612 H         1 DR7         0.0237
     91 H40       -37.1842   69.7260   23.9862 H         1 DR7         0.1899
     92 H41       -34.2956   72.3381   22.0904 H         1 DR7         0.0575
     93 H42       -35.3926   73.3671   23.0725 H         1 DR7         0.0575
     94 H43       -35.8581   72.8969   21.4025 H         1 DR7         0.0575
     95 H44       -38.0420   71.0438   29.3517 H         1 DR7         0.0995
     96 H45       -38.0750   72.7492   28.7884 H         1 DR7         0.0995
     97 H46       -36.6780   73.3722   26.6928 H         1 DR7         0.0567
     98 H47       -34.6074   72.7702   25.4414 H         1 DR7         0.0625
     99 H48       -36.7896   69.4638   28.4057 H         1 DR7         0.0567
    100 H49       -34.7883   68.8849   27.1679 H         1 DR7         0.0625
    101 H50       -33.6384   68.3268   26.5113 H         1 DR7         0.0706
    102 H51       -31.6556   67.3107   25.4638 H         1 DR7         0.0732
    103 H52       -30.3046   68.6881   23.9324 H         1 DR7         0.0697
    104 H53       -30.9698   71.0057   23.4997 H         1 DR7         0.0823
@<TRIPOS>BOND
     1    1    2 1  
     2    2    3 1  
     3    3    4 2  
     4    3    5 am 
     5    5    6 1  
     6    6    7 1  
     7    6   11 1  
     8    7    8 1  
     9    7    9 1  
    10    7   10 1  
    11   11   12 2  
    12   11   13 am 
    13   13   14 1  
    14   14   15 1  
    15   14   22 1  
    16   15   16 1  
    17   16   17 ar 
    18   16   21 ar 
    19   17   18 ar 
    20   18   19 ar 
    21   19   20 ar 
    22   20   21 ar 
    23   22   23 1  
    24   22   24 1  
    25   24   25 1  
    26   25   26 1  
    27   25   39 1  
    28   26   27 am 
    29   27   28 2  
    30   27   29 1  
    31   29   30 1  
    32   29   34 1  
    33   30   31 1  
    34   30   32 1  
    35   30   33 1  
    36   34   35 am 
    37   35   36 2  
    38   35   37 1  
    39   37   38 1  
    40   39   40 1  
    41   40   41 ar 
    42   40   43 ar 
    43   41   42 ar 
    44   42   45 ar 
    45   43   44 ar 
    46   44   45 ar 
    47   45   46 1  
    48   46   47 ar 
    49   46   51 ar 
    50   47   48 ar 
    51   48   49 ar 
    52   49   50 ar 
    53   50   51 ar 
    54    1   52 1  
    55    1   53 1  
    56    1   54 1  
    57    5   55 1  
    58    6   56 1  
    59    8   57 1  
    60    8   58 1  
    61    8   59 1  
    62    9   60 1  
    63    9   61 1  
    64    9   62 1  
    65   10   63 1  
    66   10   64 1  
    67   10   65 1  
    68   13   66 1  
    69   14   67 1  
    70   15   68 1  
    71   15   69 1  
    72   17   70 1  
    73   18   71 1  
    74   19   72 1  
    75   20   73 1  
    76   21   74 1  
    77   22   75 1  
    78   23   76 1  
    79   24   77 1  
    80   24   78 1  
    81   25   79 1  
    82   26   80 1  
    83   29   81 1  
    84   31   82 1  
    85   31   83 1  
    86   31   84 1  
    87   32   85 1  
    88   32   86 1  
    89   32   87 1  
    90   33   88 1  
    91   33   89 1  
    92   33   90 1  
    93   34   91 1  
    94   38   92 1  
    95   38   93 1  
    96   38   94 1  
    97   39   95 1  
    98   39   96 1  
    99   41   97 1  
   100   42   98 1  
   101   43   99 1  
   102   44  100 1  
   103   47  101 1  
   104   48  102 1  
   105   49  103 1  
   106   50  104 1  
@<TRIPOS>SUBSTRUCTURE
     1 DR7         1

