### 
### Created by X-TOOL on Mon Sep 10 21:12:52 2018
### 

@<TRIPOS>MOLECULE
2arm_ligand
   45    47     1     0     0
SMALL
GAST_HUCK


@<TRIPOS>ATOM
      1 C10        14.3500   22.8900    1.4090 C.3       1 OIN        -0.0426
      2 N          13.9530   23.7980    0.3230 N.4       1 OIN         0.2375
      3 C11        14.2440   25.1580    0.3700 C.3       1 OIN        -0.0179
      4 C17        13.9740   25.5840   -1.0310 C.3       1 OIN        -0.0045
      5 C16        12.6670   24.8070   -1.2000 C.3       1 OIN        -0.0045
      6 C15        12.6310   24.1650    0.1470 C.3       1 OIN        -0.0179
      7 C14        11.7730   24.6900    1.2640 C.3       1 OIN         0.0213
      8 C13        12.4120   25.9400    1.7980 C.3       1 OIN         0.0979
      9 C12        13.9180   26.0490    1.5450 C.3       1 OIN         0.0213
     10 O2         11.5720   26.8250    2.6270 O.3       1 OIN        -0.2714
     11 C7         10.3380   26.1920    3.1490 C.2       1 OIN         0.2510
     12 O3         10.4440   25.4730    4.1360 O.2       1 OIN        -0.3669
     13 C9          8.9630   26.4510    2.5290 C.3       1 OIN         0.1160
     14 C8          7.8550   26.2850    3.5610 C.3       1 OIN         0.0743
     15 OH          7.9420   27.2370    4.6070 O.3       1 OIN        -0.3903
     16 C6          8.6980   25.6100    1.3170 C.ar      1 OIN        -0.0177
     17 C5          8.3620   26.2330    0.1210 C.ar      1 OIN        -0.0575
     18 C4          8.1380   25.4890   -1.0280 C.ar      1 OIN        -0.0681
     19 C3          8.2400   24.1100   -0.9950 C.ar      1 OIN        -0.0684
     20 C2          8.5780   23.4790    0.1870 C.ar      1 OIN        -0.0681
     21 C1          8.8000   24.2230    1.3380 C.ar      1 OIN        -0.0575
     22 H1         15.4374   22.7281    1.3725 H         1 OIN         0.0778
     23 H2         13.8318   21.9271    1.2898 H         1 OIN         0.0778
     24 H3         14.0780   23.3354    2.3773 H         1 OIN         0.0778
     25 H4         14.3271   23.3772   -0.5131 H         1 OIN         0.2036
     26 H5         15.3420   25.1727    0.4339 H         1 OIN         0.0852
     27 H6         14.7555   25.2541   -1.7313 H         1 OIN         0.0322
     28 H7         13.8344   26.6712   -1.1229 H         1 OIN         0.0322
     29 H8         12.7239   24.0676   -2.0125 H         1 OIN         0.0322
     30 H9         11.8063   25.4710   -1.3681 H         1 OIN         0.0322
     31 H10        12.1238   23.2068   -0.0388 H         1 OIN         0.0852
     32 H11        11.7009   23.9379    2.0634 H         1 OIN         0.0349
     33 H12        10.7664   24.9193    0.8843 H         1 OIN         0.0349
     34 H13        12.1850   26.5290    0.8972 H         1 OIN         0.0653
     35 H14        14.1859   27.0903    1.3130 H         1 OIN         0.0349
     36 H15        14.4736   25.7169    2.4343 H         1 OIN         0.0349
     37 H16         8.9515   27.5008    2.2007 H         1 OIN         0.0734
     38 H17         7.9249   25.2766    3.9949 H         1 OIN         0.0608
     39 H18         6.8837   26.4012    3.0579 H         1 OIN         0.0608
     40 H19         8.7752   27.1405    5.0530 H         1 OIN         0.2098
     41 H20         8.2740   27.3128    0.0857 H         1 OIN         0.0561
     42 H21         7.8822   25.9899   -1.9547 H         1 OIN         0.0600
     43 H22         8.0559   23.5279   -1.8907 H         1 OIN         0.0561
     44 H23         8.6701   22.3993    0.2157 H         1 OIN         0.0600
     45 H24         9.0554   23.7178    2.2624 H         1 OIN         0.0561
@<TRIPOS>BOND
     1    1    2 1  
     2    2    3 1  
     3    2    6 1  
     4    3    4 1  
     5    3    9 1  
     6    4    5 1  
     7    5    6 1  
     8    6    7 1  
     9    7    8 1  
    10    8    9 1  
    11    8   10 1  
    12   10   11 1  
    13   11   12 2  
    14   11   13 1  
    15   13   14 1  
    16   13   16 1  
    17   14   15 1  
    18   16   17 ar 
    19   16   21 ar 
    20   17   18 ar 
    21   18   19 ar 
    22   19   20 ar 
    23   20   21 ar 
    24    1   22 1  
    25    1   23 1  
    26    1   24 1  
    27    2   25 1  
    28    3   26 1  
    29    4   27 1  
    30    4   28 1  
    31    5   29 1  
    32    5   30 1  
    33    6   31 1  
    34    7   32 1  
    35    7   33 1  
    36    8   34 1  
    37    9   35 1  
    38    9   36 1  
    39   13   37 1  
    40   14   38 1  
    41   14   39 1  
    42   15   40 1  
    43   17   41 1  
    44   18   42 1  
    45   19   43 1  
    46   20   44 1  
    47   21   45 1  
@<TRIPOS>SUBSTRUCTURE
     1 OIN         1

