### 
### Created by X-TOOL on Mon Sep 10 21:12:52 2018
### 

@<TRIPOS>MOLECULE
2asu_ligand
   56    55     1     0     0
SMALL
GAST_HUCK


@<TRIPOS>ATOM
      1 N          61.7140   49.4090    5.4320 N.4       1 CYS         0.2385
      2 CA         62.1450   50.8680    5.5070 C.3       1 CYS         0.0739
      3 C          61.1570   51.7600    6.2430 C.2       1 CYS         0.2273
      4 O          59.9520   51.5170    6.2730 O.2       1 CYS        -0.3907
      5 CB         62.3710   51.4280    4.1020 C.3       1 CYS         0.0511
      6 SG         60.8800   51.7320    3.1200 S.3       1 CYS        -0.1701
      7 N          61.6690   52.8270    6.8320 N.am      1 GLY        -0.2637
      8 CA         60.8250   53.9360    7.2450 C.3       1 GLY         0.1202
      9 C          60.0620   53.6540    8.5200 C.2       1 GLY         0.2007
     10 O          58.9850   54.1720    8.7290 O.2       1 GLY        -0.3947
     11 N          60.6230   52.8010    9.3700 N.am      1 LYS        -0.2642
     12 CA         60.0690   52.5870   10.6960 C.3       1 LYS         0.1282
     13 C          61.0970   53.0670   11.7340 C.2       1 LYS         0.2037
     14 O          62.3290   52.8440   11.6100 O.2       1 LYS        -0.3944
     15 CB         59.6940   51.1060   10.8840 C.3       1 LYS        -0.0244
     16 N          60.6040   53.7520   12.7470 N.am      1 ARG        -0.2624
     17 CA         61.4450   54.2110   13.8500 C.3       1 ARG         0.1421
     18 C          60.9120   53.6470   15.1560 C.2       1 ARG         0.2571
     19 O          59.8030   53.1250   15.1560 O.2       1 ARG        -0.3680
     20 CB         61.4490   55.7260   13.9270 C.3       1 ARG        -0.0079
     21 CG         62.4250   56.2530   14.9280 C.3       1 ARG        -0.0155
     22 CD         62.9700   57.5950   14.5740 C.3       1 ARG         0.0627
     23 NE         61.9440   58.6280   14.6430 N.pl3     1 ARG        -0.2723
     24 CZ         62.1670   59.9150   14.4240 C.cat     1 ARG         0.2882
     25 NH1        63.3890   60.3260   14.1140 N.pl3     1 ARG        -0.2849
     26 NH2        61.1680   60.7930   14.5350 N.pl3     1 ARG        -0.2849
     27 O1         61.6314   53.7179   16.2724 O.3       1 ARG        -0.2910
     28 H1         62.4110   48.8780    4.9338 H         1 CYS         0.2015
     29 H2         60.8323   49.3435    4.9479 H         1 CYS         0.2015
     30 H3         61.6135   49.0399    6.3646 H         1 CYS         0.2015
     31 H4         63.0994   50.9032    6.0528 H         1 CYS         0.1106
     32 H5         62.9969   50.7111    3.5505 H         1 CYS         0.0455
     33 H6         62.9083   52.3825    4.2024 H         1 CYS         0.0455
     34 H7         60.2949   52.3996    3.5976 H         1 CYS         0.1020
     35 H8         62.6544   52.8720    6.9963 H         1 GLY         0.1882
     36 H9         60.1021   54.1443    6.4425 H         1 GLY         0.0763
     37 H10        61.4603   54.8197    7.4047 H         1 GLY         0.0763
     38 H11        61.4410   52.2973    9.0923 H         1 LYS         0.1883
     39 H12        59.1549   53.1893   10.8038 H         1 LYS         0.0797
     40 H13        59.2764   50.9585   11.8909 H         1 LYS         0.0277
     41 H14        60.5922   50.4823   10.7646 H         1 LYS         0.0277
     42 H15        58.9454   50.8188   10.1309 H         1 LYS         0.0277
     43 H16        59.6267   53.9634   12.7607 H         1 ARG         0.1885
     44 H17        62.4736   53.8553   13.6908 H         1 ARG         0.0816
     45 H18        60.4410   56.0663   14.2064 H         1 ARG         0.0315
     46 H19        61.7102   56.1274   12.9367 H         1 ARG         0.0315
     47 H20        63.2635   55.5451   15.0036 H         1 ARG         0.0301
     48 H21        61.9194   56.3279   15.9020 H         1 ARG         0.0301
     49 H22        63.3709   57.5584   13.5503 H         1 ARG         0.0689
     50 H23        63.7785   57.8480   15.2756 H         1 ARG         0.0689
     51 H24        60.9837   58.3384   14.8772 H         1 ARG         0.2642
     52 H25        63.5681   61.3257   13.9427 H         1 ARG         0.2615
     53 H26        64.1591   59.6455   14.0445 H         1 ARG         0.2615
     54 H27        60.2209   60.4677   14.7761 H         1 ARG         0.2615
     55 H28        61.3441   61.7959   14.3796 H         1 ARG         0.2615
     56 H29        61.1517   54.2129   16.9260 H         1 ARG         0.2540
@<TRIPOS>BOND
     1    2    1 1  
     2    2    5 1  
     3    3    2 1  
     4    3    4 2  
     5    5    6 1  
     6    8    7 1  
     7    9    8 1  
     8    9   10 2  
     9    7    3 am 
    10   12   11 1  
    11   12   15 1  
    12   13   12 1  
    13   13   14 2  
    14   11    9 am 
    15   16   17 1  
    16   17   20 1  
    17   17   18 1  
    18   18   19 2  
    19   20   21 1  
    20   21   22 1  
    21   22   23 1  
    22   23   24 ar 
    23   24   26 ar 
    24   24   25 ar 
    25   13   16 am 
    26   18   27 1  
    27    1   28 1  
    28    1   29 1  
    29    1   30 1  
    30    2   31 1  
    31    5   32 1  
    32    5   33 1  
    33    6   34 1  
    34    7   35 1  
    35    8   36 1  
    36    8   37 1  
    37   11   38 1  
    38   12   39 1  
    39   15   40 1  
    40   15   41 1  
    41   15   42 1  
    42   16   43 1  
    43   17   44 1  
    44   20   45 1  
    45   20   46 1  
    46   21   47 1  
    47   21   48 1  
    48   22   49 1  
    49   22   50 1  
    50   23   51 1  
    51   25   52 1  
    52   25   53 1  
    53   26   54 1  
    54   26   55 1  
    55   27   56 1  
@<TRIPOS>SUBSTRUCTURE
     1 CYS         1

