### 
### Created by X-TOOL on Mon Sep 10 21:12:54 2018
### 

@<TRIPOS>MOLECULE
2ath_ligand
   56    59     1     0     0
SMALL
GAST_HUCK


@<TRIPOS>ATOM
      1 C13        19.9500    4.7520   34.7340 C.3       1 3EA        -0.0638
      2 C12        19.5250    5.1610   36.1450 C.3       1 3EA        -0.0482
      3 C11        19.2060    3.9110   36.9630 C.3       1 3EA        -0.0194
      4 C10        18.8240    4.2420   38.4090 C.ar      1 3EA         0.0348
      5 C5         19.7340    4.8190   39.2830 C.ar      1 3EA         0.1840
      6 O4         21.0140    5.2580   39.0810 O.3       1 3EA        -0.1115
      7 N3         21.4900    5.7870   40.2970 N.2       1 3EA        -0.0474
      8 C2         20.5160    5.6660   41.1970 C.2       1 3EA         0.1566
      9 C1         20.6280    6.2230   42.6220 C.3       1 3EA         0.3823
     10 F34        19.8670    7.3010   42.7830 F         1 3EA        -0.2293
     11 F33        20.2740    5.3290   43.5380 F         1 3EA        -0.2293
     12 F32        21.8910    6.5720   42.8310 F         1 3EA        -0.2293
     13 C6         19.4120    5.0610   40.6150 C.ar      1 3EA         0.0296
     14 C7         18.1500    4.7190   41.0940 C.ar      1 3EA        -0.0692
     15 C8         17.2290    4.1420   40.2290 C.ar      1 3EA        -0.0426
     16 C9         17.5610    3.9050   38.8960 C.ar      1 3EA         0.0922
     17 O14        16.7140    3.2810   38.0320 O.3       1 3EA        -0.3233
     18 C15        15.3060    3.4540   38.2640 C.3       1 3EA         0.0709
     19 C16        14.7290    3.9750   36.9490 C.3       1 3EA         0.0022
     20 C17        15.5860    5.1860   36.5800 C.3       1 3EA         0.0703
     21 O18        14.9770    5.9190   35.5100 O.3       1 3EA        -0.3266
     22 C19        15.7240    7.0070   35.1860 C.ar      1 3EA         0.0730
     23 C20        15.4160    8.2440   35.7500 C.ar      1 3EA        -0.0492
     24 C24        16.7160    6.8900   34.2170 C.ar      1 3EA        -0.0453
     25 C23        17.4090    8.0220   33.7950 C.ar      1 3EA        -0.0483
     26 C22        17.0930    9.2610   34.3440 C.ar      1 3EA         0.0586
     27 C21        16.1000    9.3720   35.3180 C.ar      1 3EA        -0.0375
     28 C25        15.9850   10.6670   35.6070 C.2       1 3EA        -0.0677
     29 C26        16.8470   11.3610   34.8680 C.2       1 3EA         0.0234
     30 N27        17.5220   10.4950   34.1120 N.pl3     1 3EA        -0.2579
     31 C28        18.6800   10.8360   33.2710 C.3       1 3EA         0.1029
     32 C29        18.2610   10.8490   31.7970 C.2       1 3EA         0.0638
     33 O31        19.1670   10.6640   30.9570 O.co2     1 3EA        -0.5663
     34 O30        17.0520   11.0390   31.5420 O.co2     1 3EA        -0.5663
     35 H1         20.1797    5.6521   34.1449 H         1 3EA         0.0231
     36 H2         19.1324    4.1967   34.2512 H         1 3EA         0.0231
     37 H3         20.8436    4.1131   34.7909 H         1 3EA         0.0231
     38 H4         18.6314    5.7999   36.0881 H         1 3EA         0.0281
     39 H5         20.3426    5.7163   36.6278 H         1 3EA         0.0281
     40 H6         20.0918    3.2589   36.9720 H         1 3EA         0.0396
     41 H7         18.3664    3.3825   36.4879 H         1 3EA         0.0396
     42 H8         17.8893    4.9010   42.1303 H         1 3EA         0.0530
     43 H9         16.2440    3.8738   40.5935 H         1 3EA         0.0500
     44 H10        15.1373    4.1818   39.0714 H         1 3EA         0.0611
     45 H11        14.8411    2.4939   38.5326 H         1 3EA         0.0611
     46 H12        13.6785    4.2732   37.0812 H         1 3EA         0.0317
     47 H13        14.7958    3.2040   36.1673 H         1 3EA         0.0317
     48 H14        16.5821    4.8428   36.2638 H         1 3EA         0.0610
     49 H15        15.6855    5.8412   37.4580 H         1 3EA         0.0610
     50 H16        14.6527    8.3240   36.5155 H         1 3EA         0.0430
     51 H17        16.9487    5.9204   33.7918 H         1 3EA         0.0481
     52 H18        18.1877    7.9386   33.0455 H         1 3EA         0.0528
     53 H19        15.2940   11.0913   36.3339 H         1 3EA         0.0273
     54 H20        16.9776   12.4421   34.8789 H         1 3EA         0.0929
     55 H21        19.4727   10.0879   33.4193 H         1 3EA         0.0771
     56 H22        19.0567   11.8303   33.5529 H         1 3EA         0.0771
@<TRIPOS>BOND
     1    1    2 1  
     2    2    3 1  
     3    3    4 1  
     4    4    5 ar 
     5    4   16 ar 
     6    5    6 1  
     7    5   13 ar 
     8    6    7 1  
     9    7    8 2  
    10    8    9 1  
    11    8   13 1  
    12    9   10 1  
    13    9   11 1  
    14    9   12 1  
    15   13   14 ar 
    16   14   15 ar 
    17   15   16 ar 
    18   16   17 1  
    19   17   18 1  
    20   18   19 1  
    21   19   20 1  
    22   20   21 1  
    23   21   22 1  
    24   22   23 ar 
    25   22   24 ar 
    26   23   27 ar 
    27   24   25 ar 
    28   25   26 ar 
    29   26   27 ar 
    30   26   30 1  
    31   27   28 1  
    32   28   29 2  
    33   29   30 1  
    34   30   31 1  
    35   31   32 1  
    36   32   33 ar 
    37   32   34 ar 
    38    1   35 1  
    39    1   36 1  
    40    1   37 1  
    41    2   38 1  
    42    2   39 1  
    43    3   40 1  
    44    3   41 1  
    45   14   42 1  
    46   15   43 1  
    47   18   44 1  
    48   18   45 1  
    49   19   46 1  
    50   19   47 1  
    51   20   48 1  
    52   20   49 1  
    53   23   50 1  
    54   24   51 1  
    55   25   52 1  
    56   28   53 1  
    57   29   54 1  
    58   31   55 1  
    59   31   56 1  
@<TRIPOS>SUBSTRUCTURE
     1 3EA         1

