### 
### Created by X-TOOL on Mon Sep 10 21:12:54 2018
### 

@<TRIPOS>MOLECULE
2aux_ligand
   51    51     1     0     0
SMALL
GAST_HUCK


@<TRIPOS>ATOM
      1 C1         13.3290   60.2210   73.6160 C.3       1 CT1        -0.0653
      2 C2         12.9760   61.7130   73.6700 C.3       1 CT1        -0.0558
      3 C3         13.1170   62.2380   75.1410 C.3       1 CT1        -0.0512
      4 C4         14.5180   62.8720   75.3340 C.3       1 CT1        -0.0278
      5 O7         16.8320   63.6100   76.4650 O.3       1 CT1        -0.3928
      6 N8         13.5090   65.0180   75.9410 N.am      1 CT1        -0.2573
      7 C9         12.6350   65.5680   76.7950 C.2       1 CT1         0.3202
      8 O10        12.5200   65.1160   77.9140 O.2       1 CT1        -0.3775
      9 O11        11.8930   66.6090   76.4110 O.3       1 CT1        -0.2582
     10 C12        11.0120   67.0890   77.4360 C.3       1 CT1         0.0998
     11 C13         9.5350   67.0000   76.9360 C.3       1 CT1         0.0118
     12 C14         9.1450   65.5580   76.5790 C.ar      1 CT1        -0.0402
     13 C15         8.5670   64.7380   77.5400 C.ar      1 CT1        -0.0602
     14 C16         8.2130   63.4300   77.2120 C.ar      1 CT1        -0.0686
     15 C17         8.4410   62.9470   75.9280 C.ar      1 CT1        -0.0687
     16 C18         9.0160   63.7610   74.9670 C.ar      1 CT1        -0.0686
     17 C19         9.3690   65.0660   75.2890 C.ar      1 CT1        -0.0602
     18 C20        11.3380   68.5900   77.7110 C.3       1 CT1        -0.0142
     19 C21        11.4350   69.3290   76.3860 C.3       1 CT1        -0.0598
     20 C22        12.6550   68.7240   78.4560 C.3       1 CT1        -0.0598
     21 C6         15.8720   64.6270   76.5270 C.3       1 CT1         0.0671
     22 C5         14.4540   63.9950   76.4030 C.3       1 CT1         0.0670
     23 H1         13.2286   59.8577   72.5826 H         1 CT1         0.0230
     24 H2         12.6465   59.6588   74.2702 H         1 CT1         0.0230
     25 H3         14.3650   60.0767   73.9563 H         1 CT1         0.0230
     26 H4         11.9401   61.8560   73.3287 H         1 CT1         0.0263
     27 H5         13.6587   62.2740   73.0148 H         1 CT1         0.0263
     28 H6         12.9948   61.3995   75.8424 H         1 CT1         0.0266
     29 H7         12.3427   62.9947   75.3356 H         1 CT1         0.0266
     30 H8         14.8589   63.2982   74.3790 H         1 CT1         0.0288
     31 H9         15.2257   62.0968   75.6630 H         1 CT1         0.0288
     32 H10        16.7556   63.1541   75.6351 H         1 CT1         0.2095
     33 H11        13.5172   65.3064   74.9835 H         1 CT1         0.1871
     34 H12        11.1396   66.4949   78.3529 H         1 CT1         0.0673
     35 H13         9.4218   67.6319   76.0428 H         1 CT1         0.0455
     36 H14         8.8667   67.3643   77.7301 H         1 CT1         0.0455
     37 H15         8.3918   65.1139   78.5415 H         1 CT1         0.0557
     38 H16         7.7594   62.7886   77.9589 H         1 CT1         0.0599
     39 H17         8.1672   61.9283   75.6784 H         1 CT1         0.0559
     40 H18         9.1903   63.3816   73.9666 H         1 CT1         0.0599
     41 H19         9.8195   65.7048   74.5379 H         1 CT1         0.0557
     42 H20        10.5331   69.0297   78.3182 H         1 CT1         0.0325
     43 H21        11.6648   70.3884   76.5730 H         1 CT1         0.0233
     44 H22        10.4769   69.2505   75.8513 H         1 CT1         0.0233
     45 H23        12.2335   68.8830   75.7750 H         1 CT1         0.0233
     46 H24        12.5893   68.1905   79.4157 H         1 CT1         0.0233
     47 H25        12.8648   69.7878   78.6414 H         1 CT1         0.0233
     48 H26        13.4646   68.2907   77.8504 H         1 CT1         0.0233
     49 H27        16.0328   65.3365   75.7020 H         1 CT1         0.0580
     50 H28        15.9570   65.1562   77.4876 H         1 CT1         0.0580
     51 H29        14.1312   63.5869   77.3721 H         1 CT1         0.0578
@<TRIPOS>BOND
     1    2    1 1  
     2    3    2 1  
     3    4    3 1  
     4   22    4 1  
     5   21    5 1  
     6    6    7 am 
     7   22    6 1  
     8    7    8 2  
     9    7    9 1  
    10    9   10 1  
    11   10   11 1  
    12   10   18 1  
    13   11   12 1  
    14   12   13 ar 
    15   12   17 ar 
    16   13   14 ar 
    17   14   15 ar 
    18   16   15 ar 
    19   17   16 ar 
    20   18   19 1  
    21   18   20 1  
    22   21   22 1  
    23    1   23 1  
    24    1   24 1  
    25    1   25 1  
    26    2   26 1  
    27    2   27 1  
    28    3   28 1  
    29    3   29 1  
    30    4   30 1  
    31    4   31 1  
    32    5   32 1  
    33    6   33 1  
    34   10   34 1  
    35   11   35 1  
    36   11   36 1  
    37   13   37 1  
    38   14   38 1  
    39   15   39 1  
    40   16   40 1  
    41   17   41 1  
    42   18   42 1  
    43   19   43 1  
    44   19   44 1  
    45   19   45 1  
    46   20   46 1  
    47   20   47 1  
    48   20   48 1  
    49   21   49 1  
    50   21   50 1  
    51   22   51 1  
@<TRIPOS>SUBSTRUCTURE
     1 CT1         1

