### 
### Created by X-TOOL on Mon Sep 10 21:12:54 2018
### 

@<TRIPOS>MOLECULE
2auz_ligand
   50    51     1     0     0
SMALL
GAST_HUCK


@<TRIPOS>ATOM
      1 C1         71.9310  -11.3600  130.4030 C.3       1 CT2        -0.0653
      2 C2         73.3270  -11.5240  130.9980 C.3       1 CT2        -0.0557
      3 C3         73.3640  -10.8950  132.4040 C.3       1 CT2        -0.0490
      4 C4         74.6660  -10.0610  132.5640 C.3       1 CT2        -0.0137
      5 C5         74.9410   -9.8250  134.0420 C.3       1 CT2         0.1146
      6 N8         74.0240   -8.8620  134.5190 N.am      1 CT2        -0.2424
      7 C9         73.2030   -9.1470  135.5170 C.2       1 CT2         0.3226
      8 O10        73.2990  -10.2430  136.0990 O.2       1 CT2        -0.3774
      9 O11        72.2320   -8.2170  135.8480 O.3       1 CT2        -0.2551
     10 C12        71.6550   -8.3240  137.1690 C.3       1 CT2         0.1081
     11 C13        70.6200   -9.5330  137.2620 C.3       1 CT2         0.0144
     12 C14        69.5960   -9.4640  136.1260 C.ar      1 CT2        -0.0400
     13 C15        69.8410  -10.1250  134.9260 C.ar      1 CT2        -0.0602
     14 C16        68.9100  -10.0650  133.8860 C.ar      1 CT2        -0.0686
     15 C17        67.7300   -9.3400  134.0470 C.ar      1 CT2        -0.0687
     16 C18        67.4800   -8.6810  135.2410 C.ar      1 CT2        -0.0686
     17 C19        68.4120   -8.7410  136.2850 C.ar      1 CT2        -0.0602
     18 C20        72.7530   -8.4540  138.2370 C.3       1 CT2        -0.0176
     19 C21        73.0030   -7.0620  138.7920 C.3       1 CT2        -0.0499
     20 C22        71.8870   -6.1460  138.2580 C.3       1 CT2        -0.0499
     21 C23        70.9370   -7.0090  137.4520 C.3       1 CT2        -0.0176
     22 C6         76.3760   -9.2660  134.2280 C.2       1 CT2         0.1244
     23 O7         77.2820  -10.0010  133.3910 O.2       1 CT2        -0.3725
     24 H1         71.9052  -11.8092  129.3992 H         1 CT2         0.0230
     25 H2         71.6859  -10.2900  130.3322 H         1 CT2         0.0230
     26 H3         71.1958  -11.8626  131.0486 H         1 CT2         0.0230
     27 H4         74.0621  -11.0214  130.3522 H         1 CT2         0.0263
     28 H5         73.5720  -12.5940  131.0687 H         1 CT2         0.0263
     29 H6         73.3430  -11.6912  133.1627 H         1 CT2         0.0267
     30 H7         72.4903  -10.2398  132.5358 H         1 CT2         0.0267
     31 H8         74.5462   -9.0934  132.0547 H         1 CT2         0.0313
     32 H9         75.5090  -10.6086  132.1174 H         1 CT2         0.0313
     33 H10        74.8293  -10.7665  134.5997 H         1 CT2         0.0789
     34 H11        73.9950   -7.9554  134.0981 H         1 CT2         0.1900
     35 H12        70.0925   -9.4822  138.2259 H         1 CT2         0.0457
     36 H13        71.1694  -10.4835  137.1943 H         1 CT2         0.0457
     37 H14        70.7580  -10.6887  134.7977 H         1 CT2         0.0557
     38 H15        69.1051  -10.5823  132.9536 H         1 CT2         0.0599
     39 H16        67.0086   -9.2916  133.2393 H         1 CT2         0.0559
     40 H17        66.5619   -8.1185  135.3668 H         1 CT2         0.0599
     41 H18        68.2138   -8.2254  137.2177 H         1 CT2         0.0557
     42 H19        73.6739   -8.8510  137.7851 H         1 CT2         0.0298
     43 H20        72.4196   -9.1265  139.0411 H         1 CT2         0.0298
     44 H21        73.9839   -6.6941  138.4566 H         1 CT2         0.0266
     45 H22        72.9764   -7.0852  139.8914 H         1 CT2         0.0266
     46 H23        72.3182   -5.3627  137.6174 H         1 CT2         0.0266
     47 H24        71.3503   -5.6792  139.0971 H         1 CT2         0.0266
     48 H25        70.0183   -7.1970  138.0270 H         1 CT2         0.0298
     49 H26        70.6818   -6.5076  136.5068 H         1 CT2         0.0298
     50 H27        76.6525   -8.4458  134.8889 H         1 CT2         0.1373
@<TRIPOS>BOND
     1    1    2 1  
     2    2    3 1  
     3    3    4 1  
     4    4    5 1  
     5    5    6 1  
     6    5   22 1  
     7    6    7 am 
     8    7    8 2  
     9    7    9 1  
    10    9   10 1  
    11   10   11 1  
    12   10   18 1  
    13   10   21 1  
    14   11   12 1  
    15   12   13 ar 
    16   12   17 ar 
    17   13   14 ar 
    18   14   15 ar 
    19   15   16 ar 
    20   16   17 ar 
    21   18   19 1  
    22   19   20 1  
    23   20   21 1  
    24   22   23 2  
    25    1   24 1  
    26    1   25 1  
    27    1   26 1  
    28    2   27 1  
    29    2   28 1  
    30    3   29 1  
    31    3   30 1  
    32    4   31 1  
    33    4   32 1  
    34    5   33 1  
    35    6   34 1  
    36   11   35 1  
    37   11   36 1  
    38   13   37 1  
    39   14   38 1  
    40   15   39 1  
    41   16   40 1  
    42   17   41 1  
    43   18   42 1  
    44   18   43 1  
    45   19   44 1  
    46   19   45 1  
    47   20   46 1  
    48   20   47 1  
    49   21   48 1  
    50   21   49 1  
    51   22   50 1  
@<TRIPOS>SUBSTRUCTURE
     1 CT2         1

