### 
### Created by X-TOOL on Mon Sep 10 21:12:44 2018
### 

@<TRIPOS>MOLECULE
2avi_ligand
   31    32     1     0     0
SMALL
GAST_HUCK


@<TRIPOS>ATOM
      1 C11        -4.6980   31.2410   28.7030 C.2       1 BTN         0.0348
      2 O11        -3.5320   31.3720   29.1320 O.co2     1 BTN        -0.5690
      3 O12        -5.5990   32.0690   28.9260 O.co2     1 BTN        -0.5690
      4 C10        -4.9930   30.0780   27.7910 C.3       1 BTN         0.0002
      5 C9         -3.7060   29.3480   27.3630 C.3       1 BTN        -0.0414
      6 C8         -3.5810   29.2170   25.8660 C.3       1 BTN        -0.0505
      7 C7         -2.1950   28.8230   25.5090 C.3       1 BTN        -0.0389
      8 C2         -1.6430   29.5840   24.3010 C.3       1 BTN         0.0302
      9 S1         -2.7540   29.8010   22.8610 S.3       1 BTN        -0.1527
     10 C6         -1.3920   29.8320   21.6660 C.3       1 BTN         0.0190
     11 C5         -0.0570   29.3690   22.3540 C.3       1 BTN         0.0750
     12 N1          0.4530   28.1070   21.8110 N.am      1 BTN        -0.2671
     13 C3          0.1210   27.0650   22.5340 C.2       1 BTN         0.2580
     14 O3          0.1560   25.8660   22.2020 O.2       1 BTN        -0.4008
     15 N2         -0.3290   27.5180   23.7250 N.am      1 BTN        -0.2668
     16 C4         -0.3240   28.9530   23.8050 C.3       1 BTN         0.0775
     17 H1         -5.5066   30.4510   26.8926 H         1 BTN         0.0430
     18 H2         -5.6466   29.3680   28.3189 H         1 BTN         0.0430
     19 H3         -3.7092   28.3408   27.8052 H         1 BTN         0.0283
     20 H4         -2.8399   29.9114   27.7403 H         1 BTN         0.0283
     21 H5         -3.8193   30.1815   25.3940 H         1 BTN         0.0267
     22 H6         -4.2826   28.4497   25.5068 H         1 BTN         0.0267
     23 H7         -2.1859   27.7475   25.2784 H         1 BTN         0.0277
     24 H8         -1.5427   29.0184   26.3729 H         1 BTN         0.0277
     25 H9         -1.4104   30.5953   24.6659 H         1 BTN         0.0435
     26 H10        -1.2675   30.8557   21.2831 H         1 BTN         0.0399
     27 H11        -1.6250   29.1542   20.8316 H         1 BTN         0.0399
     28 H12         0.6921   30.1715   22.2844 H         1 BTN         0.0584
     29 H13         0.9982   28.0468   20.9749 H         1 BTN         0.1849
     30 H14        -0.6318   26.9212   24.4680 H         1 BTN         0.1849
     31 H15         0.4905   29.2869   24.4647 H         1 BTN         0.0587
@<TRIPOS>BOND
     1    1    2 ar 
     2    1    3 ar 
     3    1    4 1  
     4    4    5 1  
     5    5    6 1  
     6    6    7 1  
     7    7    8 1  
     8    8    9 1  
     9    8   16 1  
    10    9   10 1  
    11   10   11 1  
    12   11   12 1  
    13   11   16 1  
    14   12   13 am 
    15   13   14 2  
    16   13   15 am 
    17   15   16 1  
    18    4   17 1  
    19    4   18 1  
    20    5   19 1  
    21    5   20 1  
    22    6   21 1  
    23    6   22 1  
    24    7   23 1  
    25    7   24 1  
    26    8   25 1  
    27   10   26 1  
    28   10   27 1  
    29   11   28 1  
    30   12   29 1  
    31   15   30 1  
    32   16   31 1  
@<TRIPOS>SUBSTRUCTURE
     1 BTN         1

