### 
### Created by X-TOOL on Mon Sep 10 21:12:53 2018
### 

@<TRIPOS>MOLECULE
2avm_ligand
  123   122     1     0     0
SMALL
GAST_HUCK


@<TRIPOS>ATOM
      1 C          23.6060   24.5170   19.8460 C.2       1 2NC         0.1752
      2 O          23.2990   25.0150   20.9200 O.2       1 2NC        -0.3972
      3 CH3        24.2680   23.1690   19.7490 C.3       1 2NC         0.0258
      4 N          23.4440   25.1760   18.7050 N.am      1 2NC        -0.2635
      5 CA         22.9160   26.5230   18.6440 C.3       1 2NC         0.1564
      6 C          21.5280   26.5950   17.9700 C.2       1 2NC         0.2065
      7 O          20.8870   27.6570   18.0320 O.2       1 2NC        -0.3943
      8 CB         23.8470   27.4840   17.8810 C.3       1 2NC         0.0924
      9 OG1        24.0260   26.9670   16.5740 O.3       1 2NC        -0.3874
     10 CG2        25.1910   27.5640   18.6400 C.3       1 2NC        -0.0346
     11 N          21.0350   25.5200   17.3700 N.am      1 2NC        -0.2634
     12 CA         19.7660   25.4970   16.6560 C.3       1 2NC         0.1334
     13 C          18.8780   24.4320   17.2750 C.2       1 2NC         0.2023
     14 O          18.8770   23.2950   16.8110 O.2       1 2NC        -0.3945
     15 CB         19.9320   25.3050   15.1440 C.3       1 2NC        -0.0037
     16 CG1        20.9720   26.2280   14.5160 C.3       1 2NC        -0.0491
     17 CG2        18.5990   25.4250   14.4490 C.3       1 2NC        -0.0582
     18 CD1        20.6700   27.7010   14.5590 C.3       1 2NC        -0.0648
     19 N          18.1930   24.7580   18.3390 N.am      1 2NC        -0.2769
     20 CA         17.4570   23.7980   19.1540 C.3       1 2NC         0.0817
     21 C          15.9800   23.8080   18.8260 C.3       1 2NC        -0.0081
     22 CB         17.7590   24.0130   20.6390 C.3       1 2NC        -0.0249
     23 CG         19.1990   24.0410   21.0050 C.3       1 2NC        -0.0510
     24 CD         20.0060   22.8290   20.5870 C.3       1 2NC        -0.0558
     25 CE         19.4480   21.5210   21.1120 C.3       1 2NC        -0.0653
     26 N          15.6130   23.6820   17.4680 N.4       1 2NC         0.2477
     27 CA         14.3540   22.9780   17.0910 C.3       1 2NC         0.0668
     28 C          14.3550   21.5300   17.5680 C.2       1 2NC         0.2268
     29 O          15.3610   20.8000   17.5100 O.2       1 2NC        -0.3907
     30 CB         13.9730   23.1030   15.6420 C.3       1 2NC         0.0079
     31 CG         14.8170   22.1120   14.8540 C.3       1 2NC        -0.0460
     32 CD         13.9070   21.6730   13.7190 C.3       1 2NC        -0.0556
     33 CE         14.7870   21.2680   12.5400 C.3       1 2NC        -0.0653
     34 N          13.2200   21.0430   18.0020 N.am      1 2NC        -0.2609
     35 CA         13.0740   19.6400   18.4290 C.3       1 2NC         0.1331
     36 C          11.6760   19.1780   18.0740 C.2       1 2NC         0.2040
     37 O          10.6920   19.8570   18.3650 O.2       1 2NC        -0.3944
     38 CB         13.4330   19.4830   19.8880 C.3       1 2NC         0.0045
     39 CG         13.2330   18.0880   20.4300 C.3       1 2NC         0.0412
     40 CD         11.8220   17.8060   20.9130 C.2       1 2NC         0.1737
     41 OE1        11.1400   18.7160   21.3300 O.2       1 2NC        -0.3973
     42 NE2        11.3980   16.5690   20.8650 N.am      1 2NC        -0.3009
     43 N          11.5780   17.9810   17.5590 N.am      1 2NC        -0.2637
     44 CA         10.3270   17.3550   17.1860 C.3       1 2NC         0.1307
     45 C          10.2200   15.9850   17.8450 C.2       1 2NC         0.1992
     46 O          11.1900   15.2160   17.8580 O.2       1 2NC        -0.3947
     47 CB         10.2320   17.2500   15.6740 C.3       1 2NC        -0.0092
     48 CG         10.4460   18.5620   14.9250 C.3       1 2NC        -0.0156
     49 CD         10.5570   18.4040   13.4210 C.3       1 2NC         0.0627
     50 NE          9.3630   17.7970   12.8330 N.pl3     1 2NC        -0.2723
     51 CZ          9.0360   17.5230   11.6030 C.cat     1 2NC         0.2882
     52 NH1         9.9180   17.8220   10.6700 N.pl3     1 2NC        -0.2849
     53 NH2         7.8780   16.9620   11.2650 N.pl3     1 2NC        -0.2849
     54 N           9.0290   15.6390   18.3410 N.am      1 2NC        -0.2990
     55 H1         24.4502   22.9252   18.6919 H         1 2NC         0.0467
     56 H2         23.6125   22.4057   20.1935 H         1 2NC         0.0467
     57 H3         25.2252   23.1907   20.2905 H         1 2NC         0.0467
     58 H4         23.6976   24.7225   17.8506 H         1 2NC         0.1883
     59 H5         22.8170   26.8833   19.6786 H         1 2NC         0.0826
     60 H6         23.3962   28.4857   17.8242 H         1 2NC         0.0639
     61 H7         24.5984   27.5440   16.0821 H         1 2NC         0.2101
     62 H8         25.8713   28.2469   18.1100 H         1 2NC         0.0257
     63 H9         25.6433   26.5626   18.6913 H         1 2NC         0.0257
     64 H10        25.0150   27.9395   19.6588 H         1 2NC         0.0257
     65 H11        21.5668   24.6741   17.4103 H         1 2NC         0.1883
     66 H12        19.2794   26.4721   16.8059 H         1 2NC         0.0802
     67 H13        20.2899   24.2762   14.9907 H         1 2NC         0.0345
     68 H14        21.0820   25.9394   13.4603 H         1 2NC         0.0267
     69 H15        21.9246   26.0660   15.0416 H         1 2NC         0.0267
     70 H16        17.8747   24.7481   14.9257 H         1 2NC         0.0235
     71 H17        18.7123   25.1533   13.3891 H         1 2NC         0.0235
     72 H18        18.2376   26.4611   14.5253 H         1 2NC         0.0235
     73 H19        21.4883   28.2572   14.0785 H         1 2NC         0.0230
     74 H20        20.5717   28.0248   15.6057 H         1 2NC         0.0230
     75 H21        19.7292   27.8982   14.0243 H         1 2NC         0.0230
     76 H22        18.1722   25.7204   18.6099 H         1 2NC         0.1857
     77 H23        17.8301   22.7962   18.8950 H         1 2NC         0.0609
     78 H24        15.5676   24.7599   19.1918 H         1 2NC         0.0837
     79 H25        15.5156   22.9734   19.3716 H         1 2NC         0.0837
     80 H26        17.2826   23.1973   21.2026 H         1 2NC         0.0289
     81 H27        17.3152   24.9738   20.9388 H         1 2NC         0.0289
     82 H28        19.2681   24.1322   22.0990 H         1 2NC         0.0266
     83 H29        19.6504   24.9266   20.5339 H         1 2NC         0.0266
     84 H30        21.0322   22.9465   20.9652 H         1 2NC         0.0263
     85 H31        20.0231   22.7841   19.4881 H         1 2NC         0.0263
     86 H32        20.0814   20.6889   20.7708 H         1 2NC         0.0230
     87 H33        18.4243   21.3812   20.7345 H         1 2NC         0.0230
     88 H34        19.4334   21.5436   22.2117 H         1 2NC         0.0230
     89 H35        16.3661   23.1945   17.0085 H         1 2NC         0.2036
     90 H36        15.5434   24.6174   17.0988 H         1 2NC         0.2036
     91 H37        13.5527   23.4831   17.6503 H         1 2NC         0.1099
     92 H38        14.1704   24.1262   15.2897 H         1 2NC         0.0346
     93 H39        12.9055   22.8706   15.5140 H         1 2NC         0.0346
     94 H40        15.1004   21.2543   15.4816 H         1 2NC         0.0269
     95 H41        15.7241   22.5957   14.4627 H         1 2NC         0.0269
     96 H42        13.2486   22.5039   13.4255 H         1 2NC         0.0263
     97 H43        13.2958   20.8167   14.0402 H         1 2NC         0.0263
     98 H44        14.1516   20.9450   11.7022 H         1 2NC         0.0230
     99 H45        15.4454   20.4399   12.8413 H         1 2NC         0.0230
    100 H46        15.3983   22.1271   12.2265 H         1 2NC         0.0230
    101 H47        12.4227   21.6451   18.0454 H         1 2NC         0.1885
    102 H48        13.7832   19.0272   17.8532 H         1 2NC         0.0801
    103 H49        12.8072   20.1729   20.4731 H         1 2NC         0.0337
    104 H50        14.4920   19.7527   20.0133 H         1 2NC         0.0337
    105 H51        13.9224   17.9438   21.2750 H         1 2NC         0.0504
    106 H52        13.4749   17.3699   19.6327 H         1 2NC         0.0504
    107 H53        10.4740   16.3448   21.1747 H         1 2NC         0.1814
    108 H54        11.9980   15.8479   20.5186 H         1 2NC         0.1814
    109 H55        12.4215   17.4641   17.4131 H         1 2NC         0.1883
    110 H56         9.4966   17.9809   17.5448 H         1 2NC         0.0800
    111 H57         9.2313   16.8706   15.4199 H         1 2NC         0.0313
    112 H58        10.9935   16.5334   15.3326 H         1 2NC         0.0313
    113 H59        11.3743   19.0230   15.2935 H         1 2NC         0.0301
    114 H60         9.5960   19.2259   15.1410 H         1 2NC         0.0301
    115 H61        11.4244   17.7661   13.1961 H         1 2NC         0.0689
    116 H62        10.7058   19.3970   12.9718 H         1 2NC         0.0689
    117 H63         8.6443   17.5369   13.5234 H         1 2NC         0.2642
    118 H64         9.7081   17.6255    9.6809 H         1 2NC         0.2615
    119 H65        10.8170   18.2521   10.9301 H         1 2NC         0.2615
    120 H66         7.1875   16.7276   11.9925 H         1 2NC         0.2615
    121 H67         7.6719   16.7620   10.2758 H         1 2NC         0.2615
    122 H68         8.9105   14.7497   18.7827 H         1 2NC         0.1815
    123 H69         8.2558   16.2693   18.2707 H         1 2NC         0.1815
@<TRIPOS>BOND
     1    1    2 2  
     2    1    3 1  
     3    1    4 am 
     4    4    5 1  
     5    5    6 1  
     6    5    8 1  
     7    6    7 2  
     8    6   11 am 
     9    8    9 1  
    10    8   10 1  
    11   11   12 1  
    12   12   13 1  
    13   12   15 1  
    14   13   14 2  
    15   13   19 am 
    16   15   16 1  
    17   15   17 1  
    18   16   18 1  
    19   19   20 1  
    20   20   21 1  
    21   20   22 1  
    22   21   26 1  
    23   22   23 1  
    24   23   24 1  
    25   24   25 1  
    26   26   27 1  
    27   27   28 1  
    28   27   30 1  
    29   28   29 2  
    30   28   34 am 
    31   30   31 1  
    32   31   32 1  
    33   32   33 1  
    34   34   35 1  
    35   35   36 1  
    36   35   38 1  
    37   36   37 2  
    38   36   43 am 
    39   38   39 1  
    40   39   40 1  
    41   40   41 2  
    42   40   42 am 
    43   43   44 1  
    44   44   45 1  
    45   44   47 1  
    46   45   46 2  
    47   45   54 am 
    48   47   48 1  
    49   48   49 1  
    50   49   50 1  
    51   50   51 ar 
    52   51   52 ar 
    53   51   53 ar 
    54    3   55 1  
    55    3   56 1  
    56    3   57 1  
    57    4   58 1  
    58    5   59 1  
    59    8   60 1  
    60    9   61 1  
    61   10   62 1  
    62   10   63 1  
    63   10   64 1  
    64   11   65 1  
    65   12   66 1  
    66   15   67 1  
    67   16   68 1  
    68   16   69 1  
    69   17   70 1  
    70   17   71 1  
    71   17   72 1  
    72   18   73 1  
    73   18   74 1  
    74   18   75 1  
    75   19   76 1  
    76   20   77 1  
    77   21   78 1  
    78   21   79 1  
    79   22   80 1  
    80   22   81 1  
    81   23   82 1  
    82   23   83 1  
    83   24   84 1  
    84   24   85 1  
    85   25   86 1  
    86   25   87 1  
    87   25   88 1  
    88   26   89 1  
    89   26   90 1  
    90   27   91 1  
    91   30   92 1  
    92   30   93 1  
    93   31   94 1  
    94   31   95 1  
    95   32   96 1  
    96   32   97 1  
    97   33   98 1  
    98   33   99 1  
    99   33  100 1  
   100   34  101 1  
   101   35  102 1  
   102   38  103 1  
   103   38  104 1  
   104   39  105 1  
   105   39  106 1  
   106   42  107 1  
   107   42  108 1  
   108   43  109 1  
   109   44  110 1  
   110   47  111 1  
   111   47  112 1  
   112   48  113 1  
   113   48  114 1  
   114   49  115 1  
   115   49  116 1  
   116   50  117 1  
   117   52  118 1  
   118   52  119 1  
   119   53  120 1  
   120   53  121 1  
   121   54  122 1  
   122   54  123 1  
@<TRIPOS>SUBSTRUCTURE
     1 2NC         1

