### 
### Created by X-TOOL on Mon Sep 10 21:12:53 2018
### 

@<TRIPOS>MOLECULE
2avo_ligand
   94    98     1     0     0
SMALL
GAST_HUCK


@<TRIPOS>ATOM
      1 N1         22.5250   34.9020   16.3580 N.4       1 MK1         0.2576
      2 C1         21.1430   34.7970   15.6910 C.3       1 MK1         0.0316
      3 C2         20.3570   33.6320   16.2770 C.3       1 MK1         0.1092
      4 C3         19.0190   33.6030   15.5830 C.2       1 MK1         0.2304
      5 O1         18.9240   33.2450   14.3990 O.2       1 MK1        -0.3906
      6 N2         18.0010   34.0240   16.3140 N.am      1 MK1        -0.2769
      7 C4         16.5970   34.0720   15.8760 C.3       1 MK1         0.0448
      8 C5         15.8010   34.6960   17.0450 C.3       1 MK1        -0.0396
      9 C6         16.1210   32.7130   15.5550 C.3       1 MK1        -0.0396
     10 C7         16.4740   34.9770   14.6930 C.3       1 MK1        -0.0396
     11 N3         21.1430   32.3680   16.0110 N.4       1 MK1         0.2635
     12 C8         22.4640   32.4830   16.6060 C.3       1 MK1         0.0117
     13 C9         23.2100   33.6840   16.0630 C.3       1 MK1         0.0112
     14 C10        20.4760   31.2050   16.5680 C.3       1 MK1        -0.0026
     15 C11        20.6520   29.9560   15.6700 C.3       1 MK1         0.0974
     16 O2         20.6020   28.7860   16.4750 O.3       1 MK1        -0.3864
     17 C12        19.5260   29.9070   14.6500 C.3       1 MK1        -0.0003
     18 C13        19.5970   28.7020   13.6700 C.3       1 MK1         0.0608
     19 C14        18.2770   28.6450   12.8690 C.3       1 MK1         0.0007
     20 C15        18.2670   27.6110   11.7790 C.ar      1 MK1        -0.0405
     21 C16        18.3770   26.2530   12.0960 C.ar      1 MK1        -0.0602
     22 C17        18.4040   25.3120   11.0670 C.ar      1 MK1        -0.0686
     23 C18        18.2990   25.6990    9.7610 C.ar      1 MK1        -0.0687
     24 C19        18.1340   27.0410    9.4500 C.ar      1 MK1        -0.0686
     25 C20        18.1150   27.9830   10.4700 C.ar      1 MK1        -0.0602
     26 C21        20.7260   28.8310   12.6810 C.2       1 MK1         0.1831
     27 O3         20.9940   29.9020   12.0950 O.2       1 MK1        -0.3964
     28 N4         21.4030   27.7200   12.4420 N.am      1 MK1        -0.2707
     29 C22        22.3540   27.6380   11.3570 C.3       1 MK1         0.1006
     30 C23        22.2660   26.2860   10.6130 C.3       1 MK1         0.0951
     31 O4         22.1710   25.2290   11.6020 O.3       1 MK1        -0.3857
     32 C24        23.6440   26.1880    9.9430 C.3       1 MK1         0.0085
     33 C25        24.6190   26.9040   10.8570 C.ar      1 MK1        -0.0361
     34 C26        25.9810   26.8900   10.9960 C.ar      1 MK1        -0.0667
     35 C27        26.5430   27.6770   11.9590 C.ar      1 MK1        -0.0755
     36 C28        25.8200   28.5330   12.7630 C.ar      1 MK1        -0.0754
     37 C29        24.4560   28.5560   12.6350 C.ar      1 MK1        -0.0646
     38 C30        23.8140   27.7860   11.7220 C.ar      1 MK1        -0.0133
     39 C31        23.2250   36.0350   15.7360 C.3       1 MK1         0.0087
     40 C32        22.6540   37.3850   16.1160 C.ar      1 MK1         0.0294
     41 C33        22.5910   37.7530   17.4880 C.ar      1 MK1         0.0176
     42 N5         22.0950   39.0100   17.8650 N.ar      1 MK1        -0.3042
     43 C34        21.6760   39.8080   16.8410 C.ar      1 MK1         0.0042
     44 C35        21.6790   39.4910   15.5000 C.ar      1 MK1        -0.0403
     45 C36        22.1360   38.2430   15.1600 C.ar      1 MK1        -0.0354
     46 H1         22.4440   35.0364   17.3537 H         1 MK1         0.2056
     47 H2         21.2734   34.6389   14.6103 H         1 MK1         0.0899
     48 H3         20.5870   35.7309   15.8605 H         1 MK1         0.0899
     49 H4         20.2157   33.7634   17.3599 H         1 MK1         0.1155
     50 H5         18.2020   34.3360   17.2426 H         1 MK1         0.1859
     51 H6         14.7370   34.7574   16.7726 H         1 MK1         0.0254
     52 H7         16.1852   35.7056   17.2526 H         1 MK1         0.0254
     53 H8         15.9142   34.0690   17.9417 H         1 MK1         0.0254
     54 H9         15.0715   32.7596   15.2289 H         1 MK1         0.0254
     55 H10        16.1993   32.0764   16.4486 H         1 MK1         0.0254
     56 H11        16.7372   32.2897   14.7481 H         1 MK1         0.0254
     57 H12        15.4243   35.0125   14.3661 H         1 MK1         0.0254
     58 H13        17.1007   34.5961   13.8732 H         1 MK1         0.0254
     59 H14        16.8064   35.9886   14.9690 H         1 MK1         0.0254
     60 H15        21.2357   32.2462   15.0147 H         1 MK1         0.2061
     61 H16        23.0388   31.5725   16.3809 H         1 MK1         0.0868
     62 H17        22.3581   32.5898   17.6957 H         1 MK1         0.0868
     63 H18        24.2114   33.7180   16.5168 H         1 MK1         0.0868
     64 H19        23.3051   33.5824   14.9718 H         1 MK1         0.0868
     65 H20        19.4025   31.4237   16.6672 H         1 MK1         0.0840
     66 H21        20.9002   30.9925   17.5604 H         1 MK1         0.0840
     67 H22        21.6204   30.0074   15.1508 H         1 MK1         0.0648
     68 H23        19.7628   28.7434   16.9180 H         1 MK1         0.2100
     69 H24        19.5577   30.8337   14.0582 H         1 MK1         0.0321
     70 H25        18.5715   29.8518   15.1940 H         1 MK1         0.0321
     71 H26        19.7268   27.7756   14.2486 H         1 MK1         0.0561
     72 H27        18.1071   29.6309   12.4118 H         1 MK1         0.0453
     73 H28        17.4581   28.4188   13.5677 H         1 MK1         0.0453
     74 H29        18.4406   25.9354   13.1305 H         1 MK1         0.0557
     75 H30        18.5097   24.2601   11.3065 H         1 MK1         0.0599
     76 H31        18.3445   24.9594    8.9698 H         1 MK1         0.0559
     77 H32        18.0207   27.3520    8.4178 H         1 MK1         0.0599
     78 H33        17.9776   29.0302   10.2260 H         1 MK1         0.0557
     79 H34        21.2537   26.9206   13.0240 H         1 MK1         0.1880
     80 H35        22.0984   28.4461   10.6558 H         1 MK1         0.0732
     81 H36        21.4354   26.2468    9.8930 H         1 MK1         0.0659
     82 H37        22.1160   24.3889   11.1618 H         1 MK1         0.2103
     83 H38        23.6221   26.6732    8.9560 H         1 MK1         0.0439
     84 H39        23.9360   25.1339    9.8270 H         1 MK1         0.0439
     85 H40        26.5980   26.2689   10.3567 H         1 MK1         0.0537
     86 H41        27.6167   27.6265   12.0996 H         1 MK1         0.0541
     87 H42        26.3199   29.1736   13.4805 H         1 MK1         0.0541
     88 H43        23.8756   29.2060   13.2797 H         1 MK1         0.0538
     89 H44        23.1606   35.9257   14.6434 H         1 MK1         0.0997
     90 H45        24.2799   36.0043   16.0461 H         1 MK1         0.0997
     91 H46        22.9285   37.0575   18.2479 H         1 MK1         0.0767
     92 H47        21.3033   40.7900   17.1091 H         1 MK1         0.0767
     93 H48        21.3366   40.1943   14.7495 H         1 MK1         0.0693
     94 H49        22.0909   37.9228   14.1253 H         1 MK1         0.0680
@<TRIPOS>BOND
     1    1    2 1  
     2    1   13 1  
     3    1   39 1  
     4    2    3 1  
     5    3    4 1  
     6    3   11 1  
     7    4    5 2  
     8    4    6 am 
     9    6    7 1  
    10    7    8 1  
    11    7    9 1  
    12    7   10 1  
    13   11   12 1  
    14   11   14 1  
    15   12   13 1  
    16   14   15 1  
    17   15   16 1  
    18   15   17 1  
    19   17   18 1  
    20   18   19 1  
    21   18   26 1  
    22   19   20 1  
    23   20   21 ar 
    24   20   25 ar 
    25   21   22 ar 
    26   22   23 ar 
    27   23   24 ar 
    28   24   25 ar 
    29   26   27 2  
    30   26   28 am 
    31   28   29 1  
    32   29   30 1  
    33   29   38 1  
    34   30   31 1  
    35   30   32 1  
    36   32   33 1  
    37   33   34 ar 
    38   33   38 ar 
    39   34   35 ar 
    40   35   36 ar 
    41   36   37 ar 
    42   37   38 ar 
    43   39   40 1  
    44   40   41 ar 
    45   40   45 ar 
    46   41   42 ar 
    47   42   43 ar 
    48   43   44 ar 
    49   44   45 ar 
    50    1   46 1  
    51    2   47 1  
    52    2   48 1  
    53    3   49 1  
    54    6   50 1  
    55    8   51 1  
    56    8   52 1  
    57    8   53 1  
    58    9   54 1  
    59    9   55 1  
    60    9   56 1  
    61   10   57 1  
    62   10   58 1  
    63   10   59 1  
    64   11   60 1  
    65   12   61 1  
    66   12   62 1  
    67   13   63 1  
    68   13   64 1  
    69   14   65 1  
    70   14   66 1  
    71   15   67 1  
    72   16   68 1  
    73   17   69 1  
    74   17   70 1  
    75   18   71 1  
    76   19   72 1  
    77   19   73 1  
    78   21   74 1  
    79   22   75 1  
    80   23   76 1  
    81   24   77 1  
    82   25   78 1  
    83   28   79 1  
    84   29   80 1  
    85   30   81 1  
    86   31   82 1  
    87   32   83 1  
    88   32   84 1  
    89   34   85 1  
    90   35   86 1  
    91   36   87 1  
    92   37   88 1  
    93   39   89 1  
    94   39   90 1  
    95   41   91 1  
    96   43   92 1  
    97   44   93 1  
    98   45   94 1  
@<TRIPOS>SUBSTRUCTURE
     1 MK1         1

