### 
### Created by X-TOOL on Mon Sep 10 21:12:53 2018
### 

@<TRIPOS>MOLECULE
2avq_ligand
  123   122     1     0     0
SMALL
GAST_HUCK


@<TRIPOS>ATOM
      1 C          23.5580   24.5790   19.7610 C.2       1 2NC         0.1752
      2 O          23.2670   25.0870   20.8620 O.2       1 2NC        -0.3972
      3 CH3        24.1610   23.2070   19.6680 C.3       1 2NC         0.0258
      4 N          23.3920   25.2520   18.6220 N.am      1 2NC        -0.2635
      5 CA         22.8170   26.5620   18.6360 C.3       1 2NC         0.1564
      6 C          21.4400   26.7120   17.9630 C.2       1 2NC         0.2065
      7 O          20.8100   27.7580   18.0500 O.2       1 2NC        -0.3943
      8 CB         23.7610   27.5430   17.9290 C.3       1 2NC         0.0924
      9 OG1        23.9560   27.0880   16.5660 O.3       1 2NC        -0.3874
     10 CG2        25.1160   27.6310   18.6560 C.3       1 2NC        -0.0346
     11 N          20.9640   25.6690   17.3200 N.am      1 2NC        -0.2634
     12 CA         19.6920   25.6970   16.6240 C.3       1 2NC         0.1334
     13 C          18.8220   24.6430   17.2440 C.2       1 2NC         0.2023
     14 O          18.7750   23.4840   16.7760 O.2       1 2NC        -0.3945
     15 CB         19.8410   25.5230   15.0930 C.3       1 2NC        -0.0037
     16 CG1        20.9050   26.4130   14.4720 C.3       1 2NC        -0.0491
     17 CG2        18.5060   25.6550   14.3690 C.3       1 2NC        -0.0582
     18 CD1        20.6910   27.9020   14.6000 C.3       1 2NC        -0.0648
     19 N          18.1060   24.9680   18.2900 N.am      1 2NC        -0.2769
     20 CA         17.3510   23.9520   19.0390 C.3       1 2NC         0.0817
     21 C          15.8460   23.9720   18.7540 C.3       1 2NC        -0.0081
     22 CB         17.6470   24.1130   20.5130 C.3       1 2NC        -0.0249
     23 CG         19.0980   24.1520   20.9060 C.3       1 2NC        -0.0510
     24 CD         19.8940   22.9600   20.5290 C.3       1 2NC        -0.0558
     25 CE         19.3270   21.6460   21.0710 C.3       1 2NC        -0.0653
     26 N          15.4870   23.8340   17.4440 N.4       1 2NC         0.2477
     27 CA         14.2850   23.1190   16.9940 C.3       1 2NC         0.0668
     28 C          14.2990   21.6830   17.4460 C.2       1 2NC         0.2268
     29 O          15.3140   20.9660   17.3610 O.2       1 2NC        -0.3907
     30 CB         14.0900   23.1570   15.4890 C.3       1 2NC         0.0079
     31 CG         12.9590   22.4730   14.7820 C.3       1 2NC        -0.0460
     32 CD         13.2960   21.0570   14.3400 C.3       1 2NC        -0.0556
     33 CE         14.3160   21.0710   13.1950 C.3       1 2NC        -0.0653
     34 N          13.1710   21.1970   17.9050 N.am      1 2NC        -0.2609
     35 CA         13.0710   19.7800   18.3030 C.3       1 2NC         0.1331
     36 C          11.6490   19.3230   17.9850 C.2       1 2NC         0.2040
     37 O          10.6390   19.9610   18.3190 O.2       1 2NC        -0.3944
     38 CB         13.4760   19.5890   19.7410 C.3       1 2NC         0.0045
     39 CG         13.2950   18.2280   20.3160 C.3       1 2NC         0.0412
     40 CD         11.8920   17.9480   20.8690 C.2       1 2NC         0.1737
     41 OE1        11.2640   18.8560   21.3440 O.2       1 2NC        -0.3973
     42 NE2        11.4170   16.7280   20.7700 N.am      1 2NC        -0.3009
     43 N          11.5760   18.1240   17.4730 N.am      1 2NC        -0.2637
     44 CA         10.3000   17.5320   17.1300 C.3       1 2NC         0.1307
     45 C          10.2270   16.1610   17.7550 C.2       1 2NC         0.1992
     46 O          11.1820   15.4110   17.7590 O.2       1 2NC        -0.3947
     47 CB         10.1990   17.3930   15.6200 C.3       1 2NC        -0.0092
     48 CG          9.9380   18.7310   14.9330 C.3       1 2NC        -0.0156
     49 CD         10.4720   18.7770   13.5090 C.3       1 2NC         0.0627
     50 NE          9.6990   17.9290   12.6000 N.pl3     1 2NC        -0.2723
     51 CZ          8.5130   18.2320   12.0840 C.cat     1 2NC         0.2882
     52 NH1         7.9660   19.3970   12.4150 N.pl3     1 2NC        -0.2849
     53 NH2         7.8740   17.4050   11.2580 N.pl3     1 2NC        -0.2849
     54 N           9.4690   15.8580   18.1430 N.am      1 2NC        -0.2990
     55 H1         24.3377   22.9550   18.6119 H         1 2NC         0.0467
     56 H2         23.4714   22.4726   20.1097 H         1 2NC         0.0467
     57 H3         25.1157   23.1882   20.2141 H         1 2NC         0.0467
     58 H4         23.6705   24.8395   17.7546 H         1 2NC         0.1883
     59 H5         22.7099   26.8595   19.6896 H         1 2NC         0.0826
     60 H6         23.2999   28.5416   17.9171 H         1 2NC         0.0639
     61 H7         24.5395   27.6862   16.1140 H         1 2NC         0.2101
     62 H8         25.7702   28.3400   18.1276 H         1 2NC         0.0257
     63 H9         25.5887   26.6379   18.6720 H         1 2NC         0.0257
     64 H10        24.9568   27.9780   19.6876 H         1 2NC         0.0257
     65 H11        21.4992   24.8243   17.3104 H         1 2NC         0.1883
     66 H12        19.2247   26.6776   16.7970 H         1 2NC         0.0802
     67 H13        20.1795   24.4881   14.9367 H         1 2NC         0.0345
     68 H14        20.9582   26.1733   13.3998 H         1 2NC         0.0267
     69 H15        21.8655   26.1704   14.9501 H         1 2NC         0.0267
     70 H16        17.7638   24.9979   14.8458 H         1 2NC         0.0235
     71 H17        18.6299   25.3642   13.3154 H         1 2NC         0.0235
     72 H18        18.1609   26.6980   14.4234 H         1 2NC         0.0235
     73 H19        21.5220   28.4349   14.1147 H         1 2NC         0.0230
     74 H20        20.6512   28.1766   15.6644 H         1 2NC         0.0230
     75 H21        19.7440   28.1795   14.1141 H         1 2NC         0.0230
     76 H22        18.0716   25.9229   18.5850 H         1 2NC         0.1857
     77 H23        17.7231   22.9654   18.7259 H         1 2NC         0.0609
     78 H24        15.4472   24.9319   19.1138 H         1 2NC         0.0837
     79 H25        15.3847   23.1485   19.3188 H         1 2NC         0.0837
     80 H26        17.1803   23.2688   21.0417 H         1 2NC         0.0289
     81 H27        17.1854   25.0544   20.8456 H         1 2NC         0.0289
     82 H28        19.1501   24.2622   21.9992 H         1 2NC         0.0266
     83 H29        19.5553   25.0301   20.4267 H         1 2NC         0.0266
     84 H30        20.9144   23.0856   20.9202 H         1 2NC         0.0263
     85 H31        19.9273   22.8974   19.4313 H         1 2NC         0.0263
     86 H32        19.9678   20.8108   20.7518 H         1 2NC         0.0230
     87 H33        18.3093   21.4972   20.6809 H         1 2NC         0.0230
     88 H34        19.2964   21.6854   22.1699 H         1 2NC         0.0230
     89 H35        16.2632   23.3739   16.9947 H         1 2NC         0.2036
     90 H36        15.3982   24.7715   17.0845 H         1 2NC         0.2036
     91 H37        13.4188   23.6148   17.4564 H         1 2NC         0.1099
     92 H38        15.0110   22.7392   15.0563 H         1 2NC         0.0346
     93 H39        14.0101   24.2214   15.2234 H         1 2NC         0.0346
     94 H40        12.6952   23.0633   13.8921 H         1 2NC         0.0269
     95 H41        12.0961   22.4304   15.4628 H         1 2NC         0.0269
     96 H42        12.3773   20.5578   13.9982 H         1 2NC         0.0263
     97 H43        13.7183   20.5043   15.1921 H         1 2NC         0.0263
     98 H44        14.5431   20.0377   12.8936 H         1 2NC         0.0230
     99 H45        15.2388   21.5658   13.5320 H         1 2NC         0.0230
    100 H46        13.8978   21.6194   12.3380 H         1 2NC         0.0230
    101 H47        12.3715   21.7921   17.9860 H         1 2NC         0.1885
    102 H48        13.7653   19.1902   17.6865 H         1 2NC         0.0801
    103 H49        12.8832   20.2882   20.3490 H         1 2NC         0.0337
    104 H50        14.5426   19.8452   19.8228 H         1 2NC         0.0337
    105 H51        14.0177   18.1033   21.1358 H         1 2NC         0.0504
    106 H52        13.5055   17.4915   19.5265 H         1 2NC         0.0504
    107 H53        10.5052   16.5164   21.1219 H         1 2NC         0.1814
    108 H54        11.9670   16.0104   20.3427 H         1 2NC         0.1814
    109 H55        12.4163   17.6054   17.3150 H         1 2NC         0.1883
    110 H56         9.4796   18.1622   17.5039 H         1 2NC         0.0800
    111 H57         9.3736   16.7059   15.3821 H         1 2NC         0.0313
    112 H58        11.1434   16.9775   15.2387 H         1 2NC         0.0313
    113 H59        10.4245   19.5265   15.5165 H         1 2NC         0.0301
    114 H60         8.8525   18.9069   14.9070 H         1 2NC         0.0301
    115 H61        11.5169   18.4332   13.5114 H         1 2NC         0.0689
    116 H62        10.4284   19.8151   13.1478 H         1 2NC         0.0689
    117 H63        10.1092   17.0211   12.3385 H         1 2NC         0.2642
    118 H64         7.0473   19.6619   12.0320 H         1 2NC         0.2615
    119 H65         8.4608   20.0351   13.0545 H         1 2NC         0.2615
    120 H66         8.2991   16.5024   11.0023 H         1 2NC         0.2615
    121 H67         6.9548   17.6682   10.8750 H         1 2NC         0.2615
    122 H68         9.4463   14.9451   18.5505 H         1 2NC         0.1815
    123 H69         8.6530   16.4357   18.1648 H         1 2NC         0.1815
@<TRIPOS>BOND
     1    1    2 2  
     2    1    3 1  
     3    1    4 am 
     4    4    5 1  
     5    5    6 1  
     6    5    8 1  
     7    6    7 2  
     8    6   11 am 
     9    8    9 1  
    10    8   10 1  
    11   11   12 1  
    12   12   13 1  
    13   12   15 1  
    14   13   14 2  
    15   13   19 am 
    16   15   16 1  
    17   15   17 1  
    18   16   18 1  
    19   19   20 1  
    20   20   21 1  
    21   20   22 1  
    22   21   26 1  
    23   22   23 1  
    24   23   24 1  
    25   24   25 1  
    26   26   27 1  
    27   27   28 1  
    28   27   30 1  
    29   28   29 2  
    30   28   34 am 
    31   30   31 1  
    32   31   32 1  
    33   32   33 1  
    34   34   35 1  
    35   35   36 1  
    36   35   38 1  
    37   36   37 2  
    38   36   43 am 
    39   38   39 1  
    40   39   40 1  
    41   40   41 2  
    42   40   42 am 
    43   43   44 1  
    44   44   45 1  
    45   44   47 1  
    46   45   46 2  
    47   45   54 am 
    48   47   48 1  
    49   48   49 1  
    50   49   50 1  
    51   50   51 ar 
    52   51   52 ar 
    53   51   53 ar 
    54    3   55 1  
    55    3   56 1  
    56    3   57 1  
    57    4   58 1  
    58    5   59 1  
    59    8   60 1  
    60    9   61 1  
    61   10   62 1  
    62   10   63 1  
    63   10   64 1  
    64   11   65 1  
    65   12   66 1  
    66   15   67 1  
    67   16   68 1  
    68   16   69 1  
    69   17   70 1  
    70   17   71 1  
    71   17   72 1  
    72   18   73 1  
    73   18   74 1  
    74   18   75 1  
    75   19   76 1  
    76   20   77 1  
    77   21   78 1  
    78   21   79 1  
    79   22   80 1  
    80   22   81 1  
    81   23   82 1  
    82   23   83 1  
    83   24   84 1  
    84   24   85 1  
    85   25   86 1  
    86   25   87 1  
    87   25   88 1  
    88   26   89 1  
    89   26   90 1  
    90   27   91 1  
    91   30   92 1  
    92   30   93 1  
    93   31   94 1  
    94   31   95 1  
    95   32   96 1  
    96   32   97 1  
    97   33   98 1  
    98   33   99 1  
    99   33  100 1  
   100   34  101 1  
   101   35  102 1  
   102   38  103 1  
   103   38  104 1  
   104   39  105 1  
   105   39  106 1  
   106   42  107 1  
   107   42  108 1  
   108   43  109 1  
   109   44  110 1  
   110   47  111 1  
   111   47  112 1  
   112   48  113 1  
   113   48  114 1  
   114   49  115 1  
   115   49  116 1  
   116   50  117 1  
   117   52  118 1  
   118   52  119 1  
   119   53  120 1  
   120   53  121 1  
   121   54  122 1  
   122   54  123 1  
@<TRIPOS>SUBSTRUCTURE
     1 2NC         1

