### 
### Created by X-TOOL on Mon Sep 10 21:12:53 2018
### 

@<TRIPOS>MOLECULE
2avs_ligand
   94    98     1     0     0
SMALL
GAST_HUCK


@<TRIPOS>ATOM
      1 N1         22.4450   34.8440   16.1780 N.4       1 MK1         0.2576
      2 C1         21.0910   34.7250   15.5750 C.3       1 MK1         0.0316
      3 C2         20.2950   33.5670   16.1210 C.3       1 MK1         0.1092
      4 C3         18.9550   33.5470   15.4590 C.2       1 MK1         0.2304
      5 O1         18.8220   33.1750   14.2840 O.2       1 MK1        -0.3906
      6 N2         17.9760   33.9960   16.2110 N.am      1 MK1        -0.2769
      7 C4         16.5460   34.0910   15.7640 C.3       1 MK1         0.0448
      8 C5         15.8040   34.6790   16.9650 C.3       1 MK1        -0.0396
      9 C6         16.0250   32.7930   15.4150 C.3       1 MK1        -0.0396
     10 C7         16.4750   35.0410   14.6250 C.3       1 MK1        -0.0396
     11 N3         21.0870   32.3120   15.8580 N.4       1 MK1         0.2635
     12 C8         22.4500   32.3980   16.4160 C.3       1 MK1         0.0117
     13 C9         23.1680   33.6540   15.8720 C.3       1 MK1         0.0112
     14 C10        20.4550   31.1210   16.4030 C.3       1 MK1        -0.0026
     15 C11        20.6130   29.9120   15.5060 C.3       1 MK1         0.0974
     16 O2         20.6030   28.7120   16.2840 O.3       1 MK1        -0.3864
     17 C12        19.4780   29.8040   14.4820 C.3       1 MK1        -0.0003
     18 C13        19.5580   28.6430   13.5010 C.3       1 MK1         0.0608
     19 C14        18.2620   28.5260   12.6700 C.3       1 MK1         0.0007
     20 C15        18.2940   27.5220   11.5900 C.ar      1 MK1        -0.0405
     21 C16        18.4210   26.1680   11.8720 C.ar      1 MK1        -0.0602
     22 C17        18.4530   25.2370   10.8450 C.ar      1 MK1        -0.0686
     23 C18        18.3730   25.6420    9.5080 C.ar      1 MK1        -0.0687
     24 C19        18.2450   27.0060    9.2440 C.ar      1 MK1        -0.0686
     25 C20        18.1830   27.9270   10.2500 C.ar      1 MK1        -0.0602
     26 C21        20.7160   28.7700   12.5140 C.2       1 MK1         0.1831
     27 O3         20.9860   29.8580   11.9420 O.2       1 MK1        -0.3964
     28 N4         21.3860   27.6660   12.2640 N.am      1 MK1        -0.2707
     29 C22        22.2740   27.5340   11.1350 C.3       1 MK1         0.1006
     30 C23        22.1980   26.2110   10.4130 C.3       1 MK1         0.0951
     31 O4         22.1160   25.1530   11.3660 O.3       1 MK1        -0.3857
     32 C24        23.5390   26.1090    9.6840 C.3       1 MK1         0.0085
     33 C25        24.5400   26.8250   10.5540 C.ar      1 MK1        -0.0361
     34 C26        25.9030   26.8170   10.6690 C.ar      1 MK1        -0.0667
     35 C27        26.5310   27.5940   11.6000 C.ar      1 MK1        -0.0755
     36 C28        25.8220   28.4500   12.4520 C.ar      1 MK1        -0.0754
     37 C29        24.4400   28.4810   12.3620 C.ar      1 MK1        -0.0646
     38 C30        23.7590   27.7090   11.4620 C.ar      1 MK1        -0.0133
     39 C31        23.1370   36.0060   15.5760 C.3       1 MK1         0.0087
     40 C32        22.5420   37.3420   15.9960 C.ar      1 MK1         0.0294
     41 C33        22.4430   37.6860   17.3480 C.ar      1 MK1         0.0176
     42 N5         21.9150   38.8730   17.7980 N.ar      1 MK1        -0.3042
     43 C34        21.5130   39.7450   16.8190 C.ar      1 MK1         0.0042
     44 C35        21.6110   39.4840   15.4540 C.ar      1 MK1        -0.0403
     45 C36        22.1070   38.2470   15.0610 C.ar      1 MK1        -0.0354
     46 H1         22.3748   34.9626   17.1765 H         1 MK1         0.2056
     47 H2         21.2030   34.5905   14.4890 H         1 MK1         0.0899
     48 H3         20.5371   35.6542   15.7743 H         1 MK1         0.0899
     49 H4         20.1552   33.6860   17.2056 H         1 MK1         0.1155
     50 H5         18.1972   34.2933   17.1398 H         1 MK1         0.1859
     51 H6         14.7365   34.7837   16.7211 H         1 MK1         0.0254
     52 H7         16.2232   35.6667   17.2074 H         1 MK1         0.0254
     53 H8         15.9184   34.0096   17.8303 H         1 MK1         0.0254
     54 H9         14.9782   32.8928   15.0920 H         1 MK1         0.0254
     55 H10        16.0768   32.1295   16.2908 H         1 MK1         0.0254
     56 H11        16.6223   32.3662   14.5958 H         1 MK1         0.0254
     57 H12        15.4332   35.1249   14.2820 H         1 MK1         0.0254
     58 H13        17.1038   34.6731   13.8009 H         1 MK1         0.0254
     59 H14        16.8352   36.0288   14.9483 H         1 MK1         0.0254
     60 H15        21.1577   32.2023   14.8585 H         1 MK1         0.2061
     61 H16        23.0181   31.5010   16.1286 H         1 MK1         0.0868
     62 H17        22.3911   32.4590   17.5127 H         1 MK1         0.0868
     63 H18        24.1686   33.7176   16.3245 H         1 MK1         0.0868
     64 H19        23.2644   33.5654   14.7798 H         1 MK1         0.0868
     65 H20        19.3818   31.3221   16.5364 H         1 MK1         0.0840
     66 H21        20.9101   30.8966   17.3790 H         1 MK1         0.0840
     67 H22        21.5717   29.9950   14.9731 H         1 MK1         0.0648
     68 H23        19.7788   28.6461   16.7519 H         1 MK1         0.2100
     69 H24        19.4654   30.7356   13.8972 H         1 MK1         0.0321
     70 H25        18.5339   29.7074   15.0381 H         1 MK1         0.0321
     71 H26        19.6940   27.7198   14.0833 H         1 MK1         0.0561
     72 H27        18.0598   29.5072   12.2158 H         1 MK1         0.0453
     73 H28        17.4421   28.2628   13.3544 H         1 MK1         0.0453
     74 H29        18.4956   25.8370   12.9015 H         1 MK1         0.0557
     75 H30        18.5411   24.1826   11.0807 H         1 MK1         0.0599
     76 H31        18.4094   24.9181    8.7020 H         1 MK1         0.0559
     77 H32        18.1935   27.3428    8.2149 H         1 MK1         0.0599
     78 H33        18.0474   28.9761   10.0131 H         1 MK1         0.0557
     79 H34        21.2753   26.8871   12.8813 H         1 MK1         0.1880
     80 H35        21.9852   28.3249   10.4271 H         1 MK1         0.0732
     81 H36        21.3480   26.1757    9.7157 H         1 MK1         0.0659
     82 H37        22.0682   24.3208   10.9103 H         1 MK1         0.2103
     83 H38        23.4756   26.5917    8.6976 H         1 MK1         0.0439
     84 H39        23.8267   25.0547    9.5585 H         1 MK1         0.0439
     85 H40        26.4919   26.1861   10.0130 H         1 MK1         0.0537
     86 H41        27.6109   27.5468   11.6820 H         1 MK1         0.0541
     87 H42        26.3439   29.0754   13.1672 H         1 MK1         0.0541
     88 H43        23.8832   29.1352   13.0231 H         1 MK1         0.0538
     89 H44        23.0716   35.9230   14.4811 H         1 MK1         0.0997
     90 H45        24.1929   35.9817   15.8832 H         1 MK1         0.0997
     91 H46        22.8033   36.9758   18.0835 H         1 MK1         0.0767
     92 H47        21.0931   40.6960   17.1261 H         1 MK1         0.0767
     93 H48        21.3095   40.2234   14.7209 H         1 MK1         0.0693
     94 H49        22.1506   37.9950   14.0076 H         1 MK1         0.0680
@<TRIPOS>BOND
     1    1    2 1  
     2    1   13 1  
     3    1   39 1  
     4    2    3 1  
     5    3    4 1  
     6    3   11 1  
     7    4    5 2  
     8    4    6 am 
     9    6    7 1  
    10    7    8 1  
    11    7    9 1  
    12    7   10 1  
    13   11   12 1  
    14   11   14 1  
    15   12   13 1  
    16   14   15 1  
    17   15   16 1  
    18   15   17 1  
    19   17   18 1  
    20   18   19 1  
    21   18   26 1  
    22   19   20 1  
    23   20   21 ar 
    24   20   25 ar 
    25   21   22 ar 
    26   22   23 ar 
    27   23   24 ar 
    28   24   25 ar 
    29   26   27 2  
    30   26   28 am 
    31   28   29 1  
    32   29   30 1  
    33   29   38 1  
    34   30   31 1  
    35   30   32 1  
    36   32   33 1  
    37   33   34 ar 
    38   33   38 ar 
    39   34   35 ar 
    40   35   36 ar 
    41   36   37 ar 
    42   37   38 ar 
    43   39   40 1  
    44   40   41 ar 
    45   40   45 ar 
    46   41   42 ar 
    47   42   43 ar 
    48   43   44 ar 
    49   44   45 ar 
    50    1   46 1  
    51    2   47 1  
    52    2   48 1  
    53    3   49 1  
    54    6   50 1  
    55    8   51 1  
    56    8   52 1  
    57    8   53 1  
    58    9   54 1  
    59    9   55 1  
    60    9   56 1  
    61   10   57 1  
    62   10   58 1  
    63   10   59 1  
    64   11   60 1  
    65   12   61 1  
    66   12   62 1  
    67   13   63 1  
    68   13   64 1  
    69   14   65 1  
    70   14   66 1  
    71   15   67 1  
    72   16   68 1  
    73   17   69 1  
    74   17   70 1  
    75   18   71 1  
    76   19   72 1  
    77   19   73 1  
    78   21   74 1  
    79   22   75 1  
    80   23   76 1  
    81   24   77 1  
    82   25   78 1  
    83   28   79 1  
    84   29   80 1  
    85   30   81 1  
    86   31   82 1  
    87   32   83 1  
    88   32   84 1  
    89   34   85 1  
    90   35   86 1  
    91   36   87 1  
    92   37   88 1  
    93   39   89 1  
    94   39   90 1  
    95   41   91 1  
    96   43   92 1  
    97   44   93 1  
    98   45   94 1  
@<TRIPOS>SUBSTRUCTURE
     1 MK1         1

