### 
### Created by X-TOOL on Mon Sep 10 21:12:53 2018
### 

@<TRIPOS>MOLECULE
2avv_ligand
   94    98     1     0     0
SMALL
GAST_HUCK


@<TRIPOS>ATOM
      1 N1         43.7120   -1.4230   31.4980 N.4       1 MK1         0.2576
      2 C1         42.3520   -1.4540   30.9100 C.3       1 MK1         0.0316
      3 C2         41.4790   -2.6770   31.0670 C.3       1 MK1         0.1092
      4 C3         40.1260   -2.3580   30.5280 C.2       1 MK1         0.2304
      5 O1         39.9420   -2.1880   29.3280 O.2       1 MK1        -0.3906
      6 N2         39.1570   -2.2680   31.4390 N.am      1 MK1        -0.2769
      7 C4         37.7760   -2.0120   31.1500 C.3       1 MK1         0.0448
      8 C5         37.0010   -1.9000   32.4660 C.3       1 MK1        -0.0396
      9 C6         37.2200   -2.9710   30.3140 C.3       1 MK1        -0.0396
     10 C7         37.6100   -0.7030   30.5250 C.3       1 MK1        -0.0396
     11 N3         42.2790   -3.7570   30.3990 N.4       1 MK1         0.2635
     12 C8         43.7330   -3.7770   30.7560 C.3       1 MK1         0.0117
     13 C9         44.4420   -2.4460   30.8830 C.3       1 MK1         0.0112
     14 C10        41.7500   -5.1150   30.5270 C.3       1 MK1        -0.0026
     15 C11        41.6310   -5.8090   29.1750 C.3       1 MK1         0.0974
     16 O2         41.4230   -7.0990   29.6660 O.3       1 MK1        -0.3864
     17 C12        40.4730   -5.4600   28.2090 C.3       1 MK1        -0.0003
     18 C13        40.5120   -6.0430   26.7850 C.3       1 MK1         0.0608
     19 C14        39.2630   -5.6280   25.9800 C.3       1 MK1         0.0007
     20 C15        39.2850   -6.2760   24.6440 C.ar      1 MK1        -0.0405
     21 C16        39.2760   -7.6640   24.4820 C.ar      1 MK1        -0.0602
     22 C17        39.3360   -8.2140   23.2130 C.ar      1 MK1        -0.0686
     23 C18        39.3930   -7.3520   22.1240 C.ar      1 MK1        -0.0687
     24 C19        39.3970   -5.9670   22.2830 C.ar      1 MK1        -0.0686
     25 C20        39.3420   -5.4240   23.5580 C.ar      1 MK1        -0.0602
     26 C21        41.7430   -5.5970   26.0060 C.2       1 MK1         0.1831
     27 O3         42.0670   -4.3990   25.9790 O.2       1 MK1        -0.3964
     28 N4         42.4210   -6.5740   25.3980 N.am      1 MK1        -0.2707
     29 C22        43.3660   -6.3050   24.3360 C.3       1 MK1         0.1006
     30 C23        43.2430   -7.2870   23.1720 C.3       1 MK1         0.0951
     31 O4         43.2270   -8.6020   23.7050 O.3       1 MK1        -0.3857
     32 C24        44.4930   -6.9930   22.3560 C.3       1 MK1         0.0085
     33 C25        45.6480   -6.8310   23.3350 C.ar      1 MK1        -0.0361
     34 C26        47.0150   -6.9770   23.3500 C.ar      1 MK1        -0.0667
     35 C27        47.6590   -6.7450   24.5630 C.ar      1 MK1        -0.0755
     36 C28        46.9760   -6.3750   25.7240 C.ar      1 MK1        -0.0754
     37 C29        45.6030   -6.1970   25.7540 C.ar      1 MK1        -0.0646
     38 C30        44.8830   -6.4030   24.6200 C.ar      1 MK1        -0.0133
     39 C31        44.3910   -0.1400   31.6170 C.3       1 MK1         0.0087
     40 C32        43.7530    1.0810   32.2830 C.ar      1 MK1         0.0294
     41 C33        43.2840    1.0650   33.6030 C.ar      1 MK1         0.0176
     42 N5         42.7200    2.1460   34.3060 N.ar      1 MK1        -0.3042
     43 C34        42.6800    3.2960   33.5120 C.ar      1 MK1         0.0042
     44 C35        43.1230    3.3780   32.1890 C.ar      1 MK1        -0.0403
     45 C36        43.6570    2.2530   31.5730 C.ar      1 MK1        -0.0354
     46 H1         43.5910   -1.7129   32.4558 H         1 MK1         0.2056
     47 H2         42.4715   -1.2882   29.8292 H         1 MK1         0.0899
     48 H3         41.7981   -0.6122   31.3511 H         1 MK1         0.0899
     49 H4         41.3609   -2.9359   32.1295 H         1 MK1         0.1155
     50 H5         39.4130   -2.3883   32.3982 H         1 MK1         0.1859
     51 H6         35.9402   -1.7035   32.2512 H         1 MK1         0.0254
     52 H7         37.4128   -1.0744   33.0650 H         1 MK1         0.0254
     53 H8         37.0931   -2.8416   33.0271 H         1 MK1         0.0254
     54 H9         36.1642   -2.7261   30.1264 H         1 MK1         0.0254
     55 H10        37.2877   -3.9588   30.7932 H         1 MK1         0.0254
     56 H11        37.7676   -2.9878   29.3601 H         1 MK1         0.0254
     57 H12        36.5445   -0.5302   30.3134 H         1 MK1         0.0254
     58 H13        38.1804   -0.6705   29.5850 H         1 MK1         0.0254
     59 H14        37.9800    0.0779   31.2056 H         1 MK1         0.0254
     60 H15        42.2359   -3.5358   29.4165 H         1 MK1         0.2061
     61 H16        44.2547   -4.3548   29.9789 H         1 MK1         0.0868
     62 H17        43.8274   -4.2936   31.7225 H         1 MK1         0.0868
     63 H18        45.3583   -2.6065   31.4700 H         1 MK1         0.0868
     64 H19        44.7094   -2.1083   29.8709 H         1 MK1         0.0868
     65 H20        40.7536   -5.0662   30.9905 H         1 MK1         0.0840
     66 H21        42.4247   -5.7004   31.1689 H         1 MK1         0.0840
     67 H22        42.5753   -5.7140   28.6188 H         1 MK1         0.0648
     68 H23        40.6372   -7.1106   30.1998 H         1 MK1         0.2100
     69 H24        40.4481   -4.3646   28.1122 H         1 MK1         0.0321
     70 H25        39.5409   -5.8079   28.6782 H         1 MK1         0.0321
     71 H26        40.5307   -7.1396   26.8693 H         1 MK1         0.0561
     72 H27        39.2559   -4.5351   25.8553 H         1 MK1         0.0453
     73 H28        38.3587   -5.9411   26.5224 H         1 MK1         0.0453
     74 H29        39.2220   -8.3104   25.3505 H         1 MK1         0.0557
     75 H30        39.3385   -9.2888   23.0722 H         1 MK1         0.0599
     76 H31        39.4355   -7.7680   21.1239 H         1 MK1         0.0559
     77 H32        39.4428   -5.3186   21.4155 H         1 MK1         0.0599
     78 H33        39.3437   -4.3493   23.7000 H         1 MK1         0.0557
     79 H34        42.2709   -7.5200   25.6855 H         1 MK1         0.1880
     80 H35        43.1458   -5.2855   23.9865 H         1 MK1         0.0732
     81 H36        42.3339   -7.1115   22.5781 H         1 MK1         0.0659
     82 H37        42.4864   -8.6954   24.2925 H         1 MK1         0.2103
     83 H38        44.3562   -6.0664   21.7792 H         1 MK1         0.0439
     84 H39        44.6975   -7.8264   21.6679 H         1 MK1         0.0439
     85 H40        47.5655   -7.2593   22.4599 H         1 MK1         0.0537
     86 H41        48.7363   -6.8563   24.6080 H         1 MK1         0.0541
     87 H42        47.5420   -6.2214   26.6357 H         1 MK1         0.0541
     88 H43        45.1086   -5.8970   26.6709 H         1 MK1         0.0538
     89 H44        44.6377    0.1689   30.5905 H         1 MK1         0.0997
     90 H45        45.3190   -0.3385   32.1733 H         1 MK1         0.0997
     91 H46        43.3635    0.1250   34.1369 H         1 MK1         0.0767
     92 H47        42.2728    4.1961   33.9582 H         1 MK1         0.0767
     93 H48        43.0504    4.3138   31.6467 H         1 MK1         0.0693
     94 H49        43.9941    2.2996   30.5438 H         1 MK1         0.0680
@<TRIPOS>BOND
     1    1    2 1  
     2    1   13 1  
     3    1   39 1  
     4    2    3 1  
     5    3    4 1  
     6    3   11 1  
     7    4    5 2  
     8    4    6 am 
     9    6    7 1  
    10    7    8 1  
    11    7    9 1  
    12    7   10 1  
    13   11   12 1  
    14   11   14 1  
    15   12   13 1  
    16   14   15 1  
    17   15   16 1  
    18   15   17 1  
    19   17   18 1  
    20   18   19 1  
    21   18   26 1  
    22   19   20 1  
    23   20   21 ar 
    24   20   25 ar 
    25   21   22 ar 
    26   22   23 ar 
    27   23   24 ar 
    28   24   25 ar 
    29   26   27 2  
    30   26   28 am 
    31   28   29 1  
    32   29   30 1  
    33   29   38 1  
    34   30   31 1  
    35   30   32 1  
    36   32   33 1  
    37   33   34 ar 
    38   33   38 ar 
    39   34   35 ar 
    40   35   36 ar 
    41   36   37 ar 
    42   37   38 ar 
    43   39   40 1  
    44   40   41 ar 
    45   40   45 ar 
    46   41   42 ar 
    47   42   43 ar 
    48   43   44 ar 
    49   44   45 ar 
    50    1   46 1  
    51    2   47 1  
    52    2   48 1  
    53    3   49 1  
    54    6   50 1  
    55    8   51 1  
    56    8   52 1  
    57    8   53 1  
    58    9   54 1  
    59    9   55 1  
    60    9   56 1  
    61   10   57 1  
    62   10   58 1  
    63   10   59 1  
    64   11   60 1  
    65   12   61 1  
    66   12   62 1  
    67   13   63 1  
    68   13   64 1  
    69   14   65 1  
    70   14   66 1  
    71   15   67 1  
    72   16   68 1  
    73   17   69 1  
    74   17   70 1  
    75   18   71 1  
    76   19   72 1  
    77   19   73 1  
    78   21   74 1  
    79   22   75 1  
    80   23   76 1  
    81   24   77 1  
    82   25   78 1  
    83   28   79 1  
    84   29   80 1  
    85   30   81 1  
    86   31   82 1  
    87   32   83 1  
    88   32   84 1  
    89   34   85 1  
    90   35   86 1  
    91   36   87 1  
    92   37   88 1  
    93   39   89 1  
    94   39   90 1  
    95   41   91 1  
    96   43   92 1  
    97   44   93 1  
    98   45   94 1  
@<TRIPOS>SUBSTRUCTURE
     1 MK1         1

