### 
### Created by X-TOOL on Mon Sep 10 21:12:54 2018
### 

@<TRIPOS>MOLECULE
2aw1_ligand
   36    38     1     0     0
SMALL
GAST_HUCK


@<TRIPOS>ATOM
      1 S1         -5.7340    0.9590   16.4520 S.o2      1 COX         0.0630
      2 O1         -7.2960    1.0600   16.2460 O.2       1 COX        -0.1513
      3 O2         -5.1630    1.1480   17.9040 O.2       1 COX        -0.1513
      4 N1         -5.1870   -0.5400   15.8630 N.am      1 COX        -0.2616
      5 C1         -5.0120    2.2420   15.5120 C.ar      1 COX         0.1012
      6 C2         -5.8510    3.1310   14.7850 C.ar      1 COX        -0.0421
      7 C3         -5.2550    4.1820   14.0460 C.ar      1 COX        -0.0628
      8 C4         -3.8200    4.3800   14.0120 C.ar      1 COX        -0.0376
      9 C5         -3.0190    3.4480   14.7660 C.ar      1 COX        -0.0628
     10 C6         -3.6040    2.3910   15.5050 C.ar      1 COX        -0.0421
     11 C7         -3.2270    5.4750   13.2660 C.2       1 COX         0.0259
     12 C8         -2.0250    5.4500   12.4870 C.2       1 COX         0.1538
     13 C9         -1.0300    4.3420   12.1790 C.3       1 COX         0.0146
     14 O3         -1.7770    6.6960   11.9560 O.3       1 COX        -0.1594
     15 N2         -2.7450    7.4750   12.3470 N.2       1 COX        -0.1458
     16 C10        -3.6830    6.8460   13.1400 C.2       1 COX         0.0574
     17 C11        -4.8610    7.5220   13.6350 C.ar      1 COX        -0.0130
     18 C12        -5.8290    8.0660   12.7240 C.ar      1 COX        -0.0549
     19 C13        -6.9920    8.7250   13.1870 C.ar      1 COX        -0.0621
     20 C14        -7.2180    8.8560   14.5800 C.ar      1 COX        -0.0626
     21 C15        -6.2850    8.3340   15.5100 C.ar      1 COX        -0.0621
     22 C16        -5.1220    7.6750   15.0470 C.ar      1 COX        -0.0549
     23 H1         -5.4475   -0.8421   14.9460 H         1 COX         0.1634
     24 H2         -4.6049   -1.1192   16.4337 H         1 COX         0.1634
     25 H3         -6.9278    3.0064   14.7963 H         1 COX         0.0619
     26 H4         -5.8920    4.8592   13.4886 H         1 COX         0.0559
     27 H5         -1.9407    3.5593   14.7673 H         1 COX         0.0559
     28 H6         -2.9788    1.7016   16.0608 H         1 COX         0.0619
     29 H7         -0.2308    4.7358   11.5339 H         1 COX         0.0470
     30 H8         -1.5458    3.5190   11.6627 H         1 COX         0.0470
     31 H9         -0.5936    3.9697   13.1176 H         1 COX         0.0470
     32 H10        -5.6646    7.9694   11.6569 H         1 COX         0.0616
     33 H11        -7.7073    9.1281   12.4793 H         1 COX         0.0615
     34 H12        -8.1100    9.3586   14.9361 H         1 COX         0.0610
     35 H13        -6.4621    8.4394   16.5742 H         1 COX         0.0615
     36 H14        -4.4139    7.2777   15.7652 H         1 COX         0.0616
@<TRIPOS>BOND
     1    1    2 2  
     2    1    3 2  
     3    1    4 am 
     4    1    5 1  
     5    5    6 ar 
     6    5   10 ar 
     7    6    7 ar 
     8    7    8 ar 
     9    8    9 ar 
    10    8   11 1  
    11    9   10 ar 
    12   11   12 2  
    13   11   16 1  
    14   12   13 1  
    15   12   14 1  
    16   14   15 1  
    17   15   16 2  
    18   16   17 1  
    19   17   18 ar 
    20   17   22 ar 
    21   18   19 ar 
    22   19   20 ar 
    23   20   21 ar 
    24   21   22 ar 
    25    4   23 1  
    26    4   24 1  
    27    6   25 1  
    28    7   26 1  
    29    9   27 1  
    30   10   28 1  
    31   13   29 1  
    32   13   30 1  
    33   13   31 1  
    34   18   32 1  
    35   19   33 1  
    36   20   34 1  
    37   21   35 1  
    38   22   36 1  
@<TRIPOS>SUBSTRUCTURE
     1 COX         1

