### 
### Created by X-TOOL on Mon Sep 10 21:12:53 2018
### 

@<TRIPOS>MOLECULE
2ax6_ligand
   31    31     1     0     0
SMALL
GAST_HUCK


@<TRIPOS>ATOM
      1 F1         23.7050    2.4100    4.2940 F         1 HFT        -0.2146
      2 C7         23.8630    3.7240    4.4200 C.3       1 HFT         0.4082
      3 F2         23.4930    4.0350    5.6590 F         1 HFT        -0.2146
      4 F3         23.0170    4.2710    3.5520 F         1 HFT        -0.2146
      5 C3         25.3210    4.1520    4.1660 C.ar      1 HFT         0.1925
      6 C2         26.3200    3.1750    4.1560 C.ar      1 HFT         0.1646
      7 C4         25.6930    5.4710    3.8920 C.ar      1 HFT         0.2051
      8 N1         24.8750    6.5160    4.0200 N.2       1 HFT        -0.1292
      9 O2         25.3250    7.8050    3.6280 O.2       1 HFT        -0.4447
     10 O1         23.5390    6.4050    4.4870 O.2       1 HFT        -0.4447
     11 C5         27.0210    5.7700    3.5990 C.ar      1 HFT         0.0951
     12 C6         27.9990    4.7820    3.5890 C.ar      1 HFT         0.1428
     13 C1         27.6520    3.4670    3.8750 C.ar      1 HFT         0.3494
     14 N9         28.6290    2.5590    3.8920 N.am      1 HFT        -0.0740
     15 C10        28.5070    1.2640    4.1760 C.2       1 HFT         0.4158
     16 O10        27.4530    0.7050    4.4780 O.2       1 HFT        -0.2203
     17 C11        29.8200    0.4790    4.1130 C.3       1 HFT         0.1872
     18 C12        30.1840    0.0020    5.5200 C.3       1 HFT        -0.0249
     19 C13        29.6390   -0.7210    3.1810 C.3       1 HFT        -0.0249
     20 O11        30.8470    1.3380    3.6120 O.3       1 HFT        -0.3807
     21 H1         26.0471    2.1492    4.3757 H         1 HFT         0.1807
     22 H2         27.2978    6.7937    3.3742 H         1 HFT         0.1091
     23 H3         29.0274    5.0361    3.3592 H         1 HFT         0.1438
     24 H4         29.5477    2.8845    3.6684 H         1 HFT         0.4378
     25 H5         31.1269   -0.5633    5.4830 H         1 HFT         0.0245
     26 H6         29.3832   -0.6457    5.9062 H         1 HFT         0.0245
     27 H7         30.3037    0.8719    6.1826 H         1 HFT         0.0245
     28 H8         29.3777   -0.3663    2.1731 H         1 HFT         0.0245
     29 H9         28.8329   -1.3642    3.5637 H         1 HFT         0.0245
     30 H10        30.5762   -1.2951    3.1361 H         1 HFT         0.0245
     31 H11        31.6687    0.8622    3.5802 H         1 HFT         0.2080
@<TRIPOS>BOND
     1    1    2 1  
     2    2    3 1  
     3    2    4 1  
     4    2    5 1  
     5    5    6 ar 
     6    5    7 ar 
     7    6   13 ar 
     8    7    8 1  
     9    7   11 ar 
    10    8    9 2  
    11    8   10 2  
    12   11   12 ar 
    13   12   13 ar 
    14   13   14 1  
    15   14   15 am 
    16   15   16 2  
    17   15   17 1  
    18   17   18 1  
    19   17   19 1  
    20   17   20 1  
    21    6   21 1  
    22   11   22 1  
    23   12   23 1  
    24   14   24 1  
    25   18   25 1  
    26   18   26 1  
    27   18   27 1  
    28   19   28 1  
    29   19   29 1  
    30   19   30 1  
    31   20   31 1  
@<TRIPOS>SUBSTRUCTURE
     1 HFT         1

