### 
### Created by X-TOOL on Mon Sep 10 21:12:53 2018
### 

@<TRIPOS>MOLECULE
2ax9_ligand
   31    31     1     0     0
SMALL
GAST_HUCK


@<TRIPOS>ATOM
      1 BRAI       30.7480    1.5620    6.2840 Br        1 BHM        -0.0901
      2 C13        30.2680    0.0440    5.1690 C.3       1 BHM         0.0435
      3 C11        29.7970    0.5240    3.7940 C.3       1 BHM         0.1997
      4 O11        30.8330    1.3130    3.2020 O.3       1 BHM        -0.3800
      5 C12        29.4750   -0.6770    2.9030 C.3       1 BHM        -0.0238
      6 C10        28.5410    1.3860    3.9430 C.2       1 BHM         0.4169
      7 O10        27.4770    0.8860    4.3090 O.2       1 BHM        -0.2202
      8 N09        28.7280    2.6800    3.6910 N.am      1 BHM        -0.0740
      9 C06        27.7870    3.6220    3.7460 C.ar      1 BHM         0.3494
     10 C05        26.4540    3.3450    4.0380 C.ar      1 BHM         0.1646
     11 C01        28.1540    4.9350    3.4700 C.ar      1 BHM         0.1428
     12 C02        27.1930    5.9390    3.5080 C.ar      1 BHM         0.0951
     13 C03        25.8650    5.6570    3.8170 C.ar      1 BHM         0.2051
     14 N08        25.0390    6.7030    3.8740 N.2       1 BHM        -0.1292
     15 O02        23.6970    6.6110    4.3290 O.2       1 BHM        -0.4447
     16 O01        25.5390    8.0010    3.5840 O.2       1 BHM        -0.4447
     17 C04        25.4740    4.3390    4.0700 C.ar      1 BHM         0.1925
     18 C07        24.0080    3.9230    4.2900 C.3       1 BHM         0.4082
     19 F01        23.6120    4.2800    5.5080 F         1 BHM        -0.2146
     20 F02        23.1820    4.4620    3.3970 F         1 BHM        -0.2146
     21 F03        23.8340    2.6090    4.1820 F         1 BHM        -0.2146
     22 H1         29.4578   -0.5206    5.6535 H         1 BHM         0.0398
     23 H2         31.1457   -0.6074    5.0451 H         1 BHM         0.0398
     24 H3         31.6173    0.7850    3.1082 H         1 BHM         0.2081
     25 H4         29.1376   -0.3226    1.9178 H         1 BHM         0.0245
     26 H5         28.6793   -1.2766    3.3692 H         1 BHM         0.0245
     27 H6         30.3765   -1.2954    2.7812 H         1 BHM         0.0245
     28 H7         29.6517    2.9691    3.4395 H         1 BHM         0.4378
     29 H8         26.1669    2.3210    4.2480 H         1 BHM         0.1807
     30 H9         29.1830    5.1740    3.2268 H         1 BHM         0.1438
     31 H10        27.4832    6.9610    3.2929 H         1 BHM         0.1091
@<TRIPOS>BOND
     1    1    2 1  
     2    2    3 1  
     3    3    4 1  
     4    3    5 1  
     5    3    6 1  
     6    6    7 2  
     7    6    8 am 
     8    8    9 1  
     9    9   10 ar 
    10    9   11 ar 
    11   10   17 ar 
    12   11   12 ar 
    13   12   13 ar 
    14   13   14 1  
    15   13   17 ar 
    16   14   15 2  
    17   14   16 2  
    18   17   18 1  
    19   18   19 1  
    20   18   20 1  
    21   18   21 1  
    22    2   22 1  
    23    2   23 1  
    24    4   24 1  
    25    5   25 1  
    26    5   26 1  
    27    5   27 1  
    28    8   28 1  
    29   10   29 1  
    30   11   30 1  
    31   12   31 1  
@<TRIPOS>SUBSTRUCTURE
     1 BHM         1

