### 
### Created by X-TOOL on Sun Sep  9 21:50:20 2018
### 

@<TRIPOS>MOLECULE
2axi_ligand
   28    28     1     0     0
SMALL
GAST_HUCK


@<TRIPOS>ATOM
      1 S1         12.1600   -1.6760    8.0270 S.o2      1 NON        -0.1913
      2 O1         13.6000   -1.9860    7.9940 O.co2     1 NON        -0.4846
      3 O2         11.5960   -1.7730    9.4150 O.co2     1 NON        -0.4846
      4 O4         12.4490   -4.2800    1.2060 O.3       1 NON        -0.3693
      5 N1         13.1450   -3.2960    3.7400 N.4       1 NON         0.2385
      6 C1         11.2940   -2.9410    7.0090 C.3       1 NON         0.0355
      7 O3         11.9150   -0.3410    7.4610 O.co2     1 NON        -0.4846
      8 C2         11.5660   -2.5730    5.5400 C.3       1 NON         0.0039
      9 C3         12.9640   -2.9840    5.2100 C.3       1 NON        -0.0303
     10 C4         12.2720   -2.4730    2.8080 C.3       1 NON        -0.0078
     11 C5         12.6760   -2.9110    1.4050 C.3       1 NON         0.0878
     12 C6         13.1620   -5.1340    2.1060 C.3       1 NON         0.0878
     13 C7         12.7530   -4.7400    3.5160 C.3       1 NON        -0.0078
     14 H1         14.1126   -3.1530    3.4963 H         1 NON         0.2035
     15 H2         10.2133   -2.9196    7.2132 H         1 NON         0.0470
     16 H3         11.6892   -3.9435    7.2299 H         1 NON         0.0470
     17 H4         11.4537   -1.4877    5.4005 H         1 NON         0.0332
     18 H5         10.8575   -3.1021    4.8857 H         1 NON         0.0332
     19 H6         13.6461   -2.1655    5.4835 H         1 NON         0.0815
     20 H7         13.2151   -3.8813    5.7946 H         1 NON         0.0815
     21 H8         12.4618   -1.3986    2.9478 H         1 NON         0.0837
     22 H9         11.2075   -2.6838    2.9879 H         1 NON         0.0837
     23 H10        12.0883   -2.3412    0.6702 H         1 NON         0.0613
     24 H11        13.7462   -2.7019    1.2602 H         1 NON         0.0613
     25 H12        14.2458   -4.9982    1.9759 H         1 NON         0.0613
     26 H13        12.8988   -6.1851    1.9168 H         1 NON         0.0613
     27 H14        11.6649   -4.8521    3.6323 H         1 NON         0.0837
     28 H15        13.2679   -5.3824    4.2455 H         1 NON         0.0837
@<TRIPOS>BOND
     1    1    2 ar 
     2    1    3 ar 
     3    6    1 1  
     4    1    7 ar 
     5   11    4 1  
     6    4   12 1  
     7    5    9 1  
     8   10    5 1  
     9    5   13 1  
    10    8    6 1  
    11    9    8 1  
    12   10   11 1  
    13   12   13 1  
    14    5   14 1  
    15    6   15 1  
    16    6   16 1  
    17    8   17 1  
    18    8   18 1  
    19    9   19 1  
    20    9   20 1  
    21   10   21 1  
    22   10   22 1  
    23   11   23 1  
    24   11   24 1  
    25   12   25 1  
    26   12   26 1  
    27   13   27 1  
    28   13   28 1  
@<TRIPOS>SUBSTRUCTURE
     1 NON         1

