### 
### Created by X-TOOL on Mon Sep 10 21:12:47 2018
### 

@<TRIPOS>MOLECULE
2ay1_ligand
   22    22     1     0     0
SMALL
GAST_HUCK


@<TRIPOS>ATOM
      1 CA        103.3630   46.4480   11.7040 C.3       1 AHC         0.0082
      2 C         102.8860   47.1490   12.9620 C.2       1 AHC         0.0365
      3 OT1       103.3400   46.7700   14.0560 O.co2     1 AHC        -0.5689
      4 OT2       102.0590   48.0820   12.8670 O.co2     1 AHC        -0.5689
      5 CB        102.2290   46.0930   10.7440 C.3       1 AHC        -0.0136
      6 CG        101.3440   44.9730   11.2260 C.ar      1 AHC        -0.0542
      7 CD1       101.5430   43.6680   10.7840 C.ar      1 AHC        -0.0716
      8 CD2       100.2990   45.2240   12.1010 C.ar      1 AHC        -0.0716
      9 CE1       100.7100   42.6340   11.2120 C.ar      1 AHC        -0.0510
     10 CE2        99.4690   44.1960   12.5300 C.ar      1 AHC        -0.0510
     11 CZ         99.6640   42.8910   12.0890 C.ar      1 AHC         0.0284
     12 NH         98.7690   41.7920   12.5580 N.pl3     1 AHC        -0.3406
     13 H1        103.8776   45.5203   11.9948 H         1 AHC         0.0450
     14 H2        104.0686   47.1104   11.1812 H         1 AHC         0.0450
     15 H3        102.6712   45.7944    9.7821 H         1 AHC         0.0419
     16 H4        101.6059   46.9878   10.5992 H         1 AHC         0.0419
     17 H5        102.3550   43.4527   10.0990 H         1 AHC         0.0525
     18 H6        100.1273   46.2342   12.4547 H         1 AHC         0.0525
     19 H7        100.8801   41.6237   10.8579 H         1 AHC         0.0499
     20 H8         98.6592   44.4134   13.2170 H         1 AHC         0.0499
     21 H9         98.9198   40.8284   12.2270 H         1 AHC         0.1698
     22 H10        98.0007   41.9974   13.2126 H         1 AHC         0.1698
@<TRIPOS>BOND
     1    1    2 1  
     2    1    5 1  
     3    2    3 ar 
     4    2    4 ar 
     5    5    6 1  
     6    6    7 ar 
     7    6    8 ar 
     8    7    9 ar 
     9    8   10 ar 
    10    9   11 ar 
    11   10   11 ar 
    12   11   12 1  
    13    1   13 1  
    14    1   14 1  
    15    5   15 1  
    16    5   16 1  
    17    7   17 1  
    18    8   18 1  
    19    9   19 1  
    20   10   20 1  
    21   12   21 1  
    22   12   22 1  
@<TRIPOS>SUBSTRUCTURE
     1 AHC         1

