### 
### Created by X-TOOL on Mon Sep 10 21:12:46 2018
### 

@<TRIPOS>MOLECULE
2ay2_ligand
   26    26     1     0     0
SMALL
GAST_HUCK


@<TRIPOS>ATOM
      1 C1        101.0710   44.8070   11.6360 C.3       1 CXP        -0.0395
      2 C2         99.9520   45.4070   12.4900 C.3       1 CXP        -0.0501
      3 C3         99.1340   44.3550   13.2350 C.3       1 CXP        -0.0528
      4 C4         98.5830   43.3040   12.2700 C.3       1 CXP        -0.0530
      5 C5         99.7010   42.6700   11.4360 C.3       1 CXP        -0.0528
      6 C6        100.4930   43.7440   10.7020 C.3       1 CXP        -0.0501
      7 C7        101.9090   45.8550   10.8950 C.3       1 CXP        -0.0386
      8 C8        103.1460   46.3530   11.6580 C.3       1 CXP         0.0004
      9 C9        102.8110   47.1200   12.9290 C.2       1 CXP         0.0348
     10 O1        102.1190   48.1570   12.8460 O.co2     1 CXP        -0.5690
     11 O2        103.2200   46.6910   14.0230 O.co2     1 CXP        -0.5690
     12 H1        101.7579   44.2930   12.3244 H         1 CXP         0.0302
     13 H2         99.2764   45.9741   11.8328 H         1 CXP         0.0268
     14 H3        100.4020   46.0872   13.2282 H         1 CXP         0.0268
     15 H4         98.2946   44.8483   13.7470 H         1 CXP         0.0265
     16 H5         99.7765   43.8595   13.9778 H         1 CXP         0.0265
     17 H6         97.8599   43.7832   11.5937 H         1 CXP         0.0265
     18 H7         98.0778   42.5167   12.8487 H         1 CXP         0.0265
     19 H8         99.2586   41.9810   10.7015 H         1 CXP         0.0265
     20 H9        100.3771   42.1125   12.1009 H         1 CXP         0.0265
     21 H10       101.3228   43.2613   10.1650 H         1 CXP         0.0268
     22 H11        99.8266   44.2379    9.9795 H         1 CXP         0.0268
     23 H12       101.2649   46.7218   10.6860 H         1 CXP         0.0286
     24 H13       102.2480   45.4129    9.9465 H         1 CXP         0.0286
     25 H14       103.7208   47.0151   10.9938 H         1 CXP         0.0430
     26 H15       103.7609   45.4822   11.9294 H         1 CXP         0.0430
@<TRIPOS>BOND
     1    1    2 1  
     2    1    6 1  
     3    1    7 1  
     4    2    3 1  
     5    3    4 1  
     6    4    5 1  
     7    5    6 1  
     8    7    8 1  
     9    8    9 1  
    10    9   10 ar 
    11    9   11 ar 
    12    1   12 1  
    13    2   13 1  
    14    2   14 1  
    15    3   15 1  
    16    3   16 1  
    17    4   17 1  
    18    4   18 1  
    19    5   19 1  
    20    5   20 1  
    21    6   21 1  
    22    6   22 1  
    23    7   23 1  
    24    7   24 1  
    25    8   25 1  
    26    8   26 1  
@<TRIPOS>SUBSTRUCTURE
     1 CXP         1

