### 
### Created by X-TOOL on Mon Sep 10 21:12:46 2018
### 

@<TRIPOS>MOLECULE
2ay3_ligand
   28    28     1     0     0
SMALL
GAST_HUCK


@<TRIPOS>ATOM
      1 CA         92.0080   16.8320   -4.2230 C.3       1 MPP         0.0083
      2 C          92.1300   15.3500   -3.9350 C.2       1 MPP         0.0365
      3 OT1        91.2610   14.7920   -3.2330 O.co2     1 MPP        -0.5689
      4 OT2        93.1080   14.7260   -4.3990 O.co2     1 MPP        -0.5689
      5 CB         93.3610   17.5360   -4.2810 C.3       1 MPP        -0.0151
      6 CG         94.0380   17.7460   -2.9390 C.ar      1 MPP        -0.0610
      7 CD1        93.9850   18.9910   -2.2980 C.ar      1 MPP        -0.0397
      8 CD2        94.7680   16.7190   -2.3280 C.ar      1 MPP        -0.0800
      9 CE1        94.6760   19.2180   -1.0970 C.ar      1 MPP         0.1132
     10 OEA        94.6880   20.4440   -0.4440 O.3       1 MPP        -0.3266
     11 CEA        93.9380   21.3280   -1.0440 C.3       1 MPP         0.0568
     12 CE2        95.4350   16.9250   -1.1170 C.ar      1 MPP        -0.0479
     13 CZ         95.3980   18.1790   -0.5160 C.ar      1 MPP         0.1122
     14 OZA        96.0770   18.4080    0.6580 O.3       1 MPP        -0.3294
     15 CZA        97.3640   18.2390    0.4810 C.3       1 MPP         0.0554
     16 H1         91.4041   17.2959   -3.4292 H         1 MPP         0.0450
     17 H2         91.5026   16.9615   -5.1914 H         1 MPP         0.0450
     18 H3         93.2119   18.5222   -4.7450 H         1 MPP         0.0422
     19 H4         94.0320   16.9325   -4.9099 H         1 MPP         0.0422
     20 H5         93.4009   19.7920   -2.7366 H         1 MPP         0.0450
     21 H6         94.8167   15.7459   -2.8031 H         1 MPP         0.0436
     22 H7         93.9793   22.2788   -0.4924 H         1 MPP         0.0573
     23 H8         92.8994   20.9671   -1.0752 H         1 MPP         0.0573
     24 H9         94.3033   21.4831   -2.0699 H         1 MPP         0.0573
     25 H10        95.9781   16.1121   -0.6488 H         1 MPP         0.0493
     26 H11        97.8919   18.4256    1.4278 H         1 MPP         0.0570
     27 H12        97.7243   18.9421   -0.2844 H         1 MPP         0.0570
     28 H13        97.5564   17.2075    0.1511 H         1 MPP         0.0570
@<TRIPOS>BOND
     1    1    2 1  
     2    1    5 1  
     3    2    3 ar 
     4    2    4 ar 
     5    5    6 1  
     6    6    7 ar 
     7    6    8 ar 
     8    7    9 ar 
     9    8   12 ar 
    10    9   10 1  
    11    9   13 ar 
    12   10   11 1  
    13   12   13 ar 
    14   13   14 1  
    15   14   15 1  
    16    1   16 1  
    17    1   17 1  
    18    5   18 1  
    19    5   19 1  
    20    7   20 1  
    21    8   21 1  
    22   11   22 1  
    23   11   23 1  
    24   11   24 1  
    25   12   25 1  
    26   15   26 1  
    27   15   27 1  
    28   15   28 1  
@<TRIPOS>SUBSTRUCTURE
     1 MPP         1

