### 
### Created by X-TOOL on Mon Sep 10 21:12:47 2018
### 

@<TRIPOS>MOLECULE
2ay4_ligand
   23    23     1     0     0
SMALL
GAST_HUCK


@<TRIPOS>ATOM
      1 CA        103.4200   46.1910   11.9400 C.3       1 PPT         0.0090
      2 C         102.9880   47.1070   13.0690 C.2       1 PPT         0.0366
      3 OT1       103.3660   46.8430   14.2270 O.co2     1 PPT        -0.5689
      4 OT2       102.2590   48.0890   12.8100 O.co2     1 PPT        -0.5689
      5 CB        102.3090   45.9170   10.9250 C.3       1 PPT        -0.0107
      6 CG        101.2300   44.9780   11.4230 C.ar      1 PPT        -0.0481
      7 CD1       101.0550   43.7260   10.8390 C.ar      1 PPT        -0.0667
      8 CD2       100.3730   45.3580   12.4490 C.ar      1 PPT        -0.0667
      9 CE1       100.0430   42.8790   11.2700 C.ar      1 PPT        -0.0671
     10 CE2        99.3640   44.5150   12.8790 C.ar      1 PPT        -0.0671
     11 CZ         99.1840   43.2680   12.2940 C.ar      1 PPT        -0.0528
     12 CH         98.0570   42.3740   12.7330 C.3       1 PPT        -0.0343
     13 H1        103.7424   45.2322   12.3721 H         1 PPT         0.0451
     14 H2        104.2654   46.6591   11.4145 H         1 PPT         0.0451
     15 H3        102.7640   45.4740   10.0268 H         1 PPT         0.0431
     16 H4        101.8376   46.8756   10.6625 H         1 PPT         0.0431
     17 H5        101.7156   43.4096   10.0399 H         1 PPT         0.0540
     18 H6        100.4968   46.3273   12.9183 H         1 PPT         0.0540
     19 H7         99.9208   41.9072   10.8055 H         1 PPT         0.0540
     20 H8         98.7068   44.8309   13.6811 H         1 PPT         0.0540
     21 H9         98.0843   41.4387   12.1546 H         1 PPT         0.0378
     22 H10        97.0971   42.8831   12.5617 H         1 PPT         0.0378
     23 H11        98.1654   42.1462   13.8037 H         1 PPT         0.0378
@<TRIPOS>BOND
     1    1    2 1  
     2    1    5 1  
     3    2    3 ar 
     4    2    4 ar 
     5    5    6 1  
     6    6    7 ar 
     7    6    8 ar 
     8    7    9 ar 
     9    8   10 ar 
    10    9   11 ar 
    11   10   11 ar 
    12   11   12 1  
    13    1   13 1  
    14    1   14 1  
    15    5   15 1  
    16    5   16 1  
    17    7   17 1  
    18    8   18 1  
    19    9   19 1  
    20   10   20 1  
    21   12   21 1  
    22   12   22 1  
    23   12   23 1  
@<TRIPOS>SUBSTRUCTURE
     1 PPT         1

