### 
### Created by X-TOOL on Mon Sep 10 21:12:46 2018
### 

@<TRIPOS>MOLECULE
2ay5_ligand
   24    25     1     0     0
SMALL
GAST_HUCK


@<TRIPOS>ATOM
      1 C1'       102.7500   47.2000   13.0140 C.2       1 IOP         0.0360
      2 O1        103.1190   46.6940   14.0900 O.co2     1 IOP        -0.5689
      3 O2        102.1640   48.3010   12.9540 O.co2     1 IOP        -0.5689
      4 C2'       102.9580   46.4340   11.7300 C.3       1 IOP         0.0045
      5 C3'       101.6630   46.2530   10.9590 C.3       1 IOP        -0.0248
      6 N1         99.0480   44.9850   13.2310 N.pl3     1 IOP        -0.2891
      7 C2         99.8030   45.9970   12.6880 C.2       1 IOP         0.0165
      8 C3        100.6350   45.5030   11.7270 C.2       1 IOP        -0.0447
      9 C3A       100.3750   44.0950   11.6520 C.ar      1 IOP        -0.0215
     10 C4        100.8880   43.0560   10.8750 C.ar      1 IOP        -0.0747
     11 C5        100.4030   41.7710   11.0750 C.ar      1 IOP        -0.0792
     12 C6         99.4160   41.5110   12.0370 C.ar      1 IOP        -0.0768
     13 C7         98.8920   42.5130   12.8140 C.ar      1 IOP        -0.0443
     14 C7A        99.3810   43.8080   12.6110 C.ar      1 IOP         0.0603
     15 H1        103.3694   45.4426   11.9707 H         1 IOP         0.0444
     16 H2        103.6723   46.9843   11.1000 H         1 IOP         0.0444
     17 H3        101.8801   45.7023   10.0318 H         1 IOP         0.0367
     18 H4        101.2605   47.2460   10.7101 H         1 IOP         0.0367
     19 H5         98.3484   45.0927   13.9792 H         1 IOP         0.2216
     20 H6         99.7451   47.0437   12.9830 H         1 IOP         0.0795
     21 H7        101.6508   43.2486   10.1293 H         1 IOP         0.0540
     22 H8        100.7935   40.9549   10.4779 H         1 IOP         0.0510
     23 H9         99.0593   40.4960   12.1695 H         1 IOP         0.0530
     24 H10        98.1288   42.3092   13.5563 H         1 IOP         0.0541
@<TRIPOS>BOND
     1    1    2 ar 
     2    1    3 ar 
     3    4    1 1  
     4    5    4 1  
     5    8    5 1  
     6    7    6 1  
     7    6   14 1  
     8    7    8 2  
     9    8    9 1  
    10    9   10 ar 
    11    9   14 ar 
    12   10   11 ar 
    13   11   12 ar 
    14   12   13 ar 
    15   13   14 ar 
    16    4   15 1  
    17    4   16 1  
    18    5   17 1  
    19    5   18 1  
    20    6   19 1  
    21    7   20 1  
    22   10   21 1  
    23   11   22 1  
    24   12   23 1  
    25   13   24 1  
@<TRIPOS>SUBSTRUCTURE
     1 IOP         1

