### 
### Created by X-TOOL on Mon Sep 10 21:12:47 2018
### 

@<TRIPOS>MOLECULE
2ay6_ligand
   27    28     1     0     0
SMALL
GAST_HUCK


@<TRIPOS>ATOM
      1 N1        100.4040   42.3310   10.8140 N.pl3     1 3IB        -0.2891
      2 C2        100.9530   43.4760   10.2900 C.2       1 3IB         0.0164
      3 C3        100.5870   44.5620   11.0390 C.2       1 3IB        -0.0462
      4 C4         99.0940   44.6580   13.1670 C.ar      1 3IB        -0.0747
      5 C5         98.3690   43.8550   14.0220 C.ar      1 3IB        -0.0792
      6 C6         98.2950   42.4640   13.8310 C.ar      1 3IB        -0.0768
      7 C7         98.9370   41.8500   12.7870 C.ar      1 3IB        -0.0443
      8 C8         99.6700   42.6600   11.9230 C.ar      1 3IB         0.0603
      9 C9         99.7620   44.0590   12.0920 C.ar      1 3IB        -0.0216
     10 C10       100.9800   45.9940   10.8120 C.3       1 3IB        -0.0349
     11 C11       102.4890   46.2260   10.7960 C.3       1 3IB        -0.0371
     12 C12       103.1290   46.0350   12.1730 C.3       1 3IB         0.0013
     13 C13       102.7800   47.1430   13.1550 C.2       1 3IB         0.0349
     14 O1        103.0070   46.9670   14.3710 O.co2     1 3IB        -0.5690
     15 O2        102.2670   48.1950   12.7220 O.co2     1 3IB        -0.5690
     16 H1        100.5245   41.3808   10.4352 H         1 3IB         0.2216
     17 H2        101.5879   43.5144    9.4061 H         1 3IB         0.0795
     18 H3         99.1457   45.7294   13.3236 H         1 3IB         0.0540
     19 H4         97.8458   44.3051   14.8579 H         1 3IB         0.0510
     20 H5         97.7174   41.8638   14.5247 H         1 3IB         0.0530
     21 H6         98.8766   40.7777   12.6399 H         1 3IB         0.0541
     22 H7        100.5442   46.6045   11.6166 H         1 3IB         0.0350
     23 H8        100.5697   46.3165    9.8437 H         1 3IB         0.0350
     24 H9        102.6837   47.2541   10.4567 H         1 3IB         0.0297
     25 H10       102.9473   45.5148   10.0930 H         1 3IB         0.0297
     26 H11       104.2218   46.0084   12.0500 H         1 3IB         0.0432
     27 H12       102.7834   45.0773   12.5893 H         1 3IB         0.0432
@<TRIPOS>BOND
     1    2    1 1  
     2    1    8 1  
     3    3    2 2  
     4    9    3 1  
     5    3   10 1  
     6    4    5 ar 
     7    4    9 ar 
     8    5    6 ar 
     9    6    7 ar 
    10    7    8 ar 
    11    8    9 ar 
    12   10   11 1  
    13   11   12 1  
    14   12   13 1  
    15   13   14 ar 
    16   13   15 ar 
    17    1   16 1  
    18    2   17 1  
    19    4   18 1  
    20    5   19 1  
    21    6   20 1  
    22    7   21 1  
    23   10   22 1  
    24   10   23 1  
    25   11   24 1  
    26   11   25 1  
    27   12   26 1  
    28   12   27 1  
@<TRIPOS>SUBSTRUCTURE
     1 3IB         1

