### 
### Created by X-TOOL on Mon Sep 10 21:12:46 2018
### 

@<TRIPOS>MOLECULE
2ay7_ligand
   23    23     1     0     0
SMALL
GAST_HUCK


@<TRIPOS>ATOM
      1 CA        103.2640   46.0900   12.1020 C.3       1 CLT         0.0020
      2 CB1       102.5500   46.3080   10.7660 C.3       1 CLT        -0.0317
      3 CG        101.0320   46.2220   10.9040 C.3       1 CLT        -0.0177
      4 CD        100.5360   44.8920   11.3990 C.ar      1 CLT        -0.0429
      5 CE1       100.6980   43.7460   10.6330 C.ar      1 CLT        -0.0603
      6 CE2        99.9080   44.7890   12.6330 C.ar      1 CLT        -0.0603
      7 CZ1       100.2370   42.5160   11.0860 C.ar      1 CLT        -0.0686
      8 CZ2        99.4440   43.5660   13.0940 C.ar      1 CLT        -0.0686
      9 CH         99.6130   42.4250   12.3180 C.ar      1 CLT        -0.0687
     10 CB2       102.9120   47.1340   13.1490 C.2       1 CLT         0.0350
     11 OG1       103.0390   46.8410   14.3570 O.co2     1 CLT        -0.5690
     12 OG2       102.5020   48.2500   12.7720 O.co2     1 CLT        -0.5690
     13 H1        104.3495   46.1230   11.9273 H         1 CLT         0.0432
     14 H2        102.9849   45.0991   12.4895 H         1 CLT         0.0432
     15 H3        102.8854   45.5385   10.0551 H         1 CLT         0.0305
     16 H4        102.8150   47.3037   10.3807 H         1 CLT         0.0305
     17 H5        100.5839   46.4126    9.9177 H         1 CLT         0.0427
     18 H6        100.7047   46.9980   11.6116 H         1 CLT         0.0427
     19 H7        101.1903   43.8113    9.6694 H         1 CLT         0.0557
     20 H8         99.7788   45.6753   13.2436 H         1 CLT         0.0557
     21 H9        100.3658   41.6294   10.4757 H         1 CLT         0.0599
     22 H10        98.9508   43.5000   14.0570 H         1 CLT         0.0599
     23 H11        99.2568   41.4662   12.6770 H         1 CLT         0.0559
@<TRIPOS>BOND
     1    1    2 1  
     2    1   10 1  
     3    2    3 1  
     4    3    4 1  
     5    4    5 ar 
     6    4    6 ar 
     7    5    7 ar 
     8    6    8 ar 
     9    7    9 ar 
    10    8    9 ar 
    11   10   11 ar 
    12   10   12 ar 
    13    1   13 1  
    14    1   14 1  
    15    2   15 1  
    16    2   16 1  
    17    3   17 1  
    18    3   18 1  
    19    5   19 1  
    20    6   20 1  
    21    7   21 1  
    22    8   22 1  
    23    9   23 1  
@<TRIPOS>SUBSTRUCTURE
     1 CLT         1

