### 
### Created by X-TOOL on Mon Sep 10 21:12:47 2018
### 

@<TRIPOS>MOLECULE
2ay8_ligand
   20    20     1     0     0
SMALL
GAST_HUCK


@<TRIPOS>ATOM
      1 S1         94.3950   19.8500   -0.8210 S.3       1 4TB        -0.0444
      2 C2         94.1950   18.5030   -1.9270 C.2       1 4TB         0.0123
      3 C3         95.1230   17.5370   -1.7350 C.2       1 4TB        -0.0817
      4 C4         96.0490   17.8650   -0.6510 C.2       1 4TB        -0.0932
      5 C5         95.7790   19.0540   -0.0830 C.2       1 4TB        -0.0196
      6 C6         93.0680   18.5040   -2.9150 C.3       1 4TB        -0.0060
      7 C7         93.1720   17.3870   -3.9370 C.3       1 4TB        -0.0299
      8 C8         91.8120   16.8080   -4.2700 C.3       1 4TB         0.0022
      9 C9         91.7940   15.3020   -4.1330 C.2       1 4TB         0.0350
     10 O1         91.2010   14.7960   -3.1620 O.co2     1 4TB        -0.5690
     11 O2         92.4100   14.6140   -4.9680 O.co2     1 4TB        -0.5690
     12 H1         95.1746   16.6202   -2.3205 H         1 4TB         0.0276
     13 H2         96.8670   17.2177   -0.3383 H         1 4TB         0.0371
     14 H3         96.3526   19.4762    0.7408 H         1 4TB         0.0598
     15 H4         93.0696   19.4667   -3.4471 H         1 4TB         0.0454
     16 H5         92.1214   18.3897   -2.3665 H         1 4TB         0.0454
     17 H6         93.8099   16.5887   -3.5298 H         1 4TB         0.0308
     18 H7         93.6253   17.7855   -4.8566 H         1 4TB         0.0308
     19 H8         91.5556   17.0743   -5.3060 H         1 4TB         0.0432
     20 H9         91.0652   17.2367   -3.5856 H         1 4TB         0.0432
@<TRIPOS>BOND
     1    1    2 1  
     2    1    5 1  
     3    2    3 2  
     4    2    6 1  
     5    3    4 1  
     6    4    5 2  
     7    6    7 1  
     8    7    8 1  
     9    8    9 1  
    10    9   10 ar 
    11    9   11 ar 
    12    3   12 1  
    13    4   13 1  
    14    5   14 1  
    15    6   15 1  
    16    6   16 1  
    17    7   17 1  
    18    7   18 1  
    19    8   19 1  
    20    8   20 1  
@<TRIPOS>SUBSTRUCTURE
     1 4TB         1

