### 
### Created by X-TOOL on Mon Sep 10 21:12:46 2018
### 

@<TRIPOS>MOLECULE
2ay9_ligand
   26    26     1     0     0
SMALL
GAST_HUCK


@<TRIPOS>ATOM
      1 C1         94.9910   18.5800   -1.6300 C.ar      1 5PV        -0.0430
      2 C2         94.1730   19.6790   -1.2980 C.ar      1 5PV        -0.0603
      3 C3         94.0930   20.1500    0.0020 C.ar      1 5PV        -0.0686
      4 C4         94.8250   19.5370    0.9950 C.ar      1 5PV        -0.0687
      5 C5         95.6520   18.4540    0.6830 C.ar      1 5PV        -0.0686
      6 C6         95.7290   17.9750   -0.6300 C.ar      1 5PV        -0.0603
      7 C7         95.0690   18.0720   -3.0400 C.3       1 5PV        -0.0191
      8 C8         93.9580   17.1070   -3.4040 C.3       1 5PV        -0.0418
      9 C9         92.5280   17.6700   -3.2480 C.3       1 5PV        -0.0397
     10 C10        91.5320   16.8440   -4.0830 C.3       1 5PV         0.0003
     11 C11        91.6960   15.3390   -3.8720 C.2       1 5PV         0.0348
     12 O1         91.3100   14.8270   -2.8040 O.co2     1 5PV        -0.5690
     13 O2         92.2100   14.6570   -4.7770 O.co2     1 5PV        -0.5690
     14 H1         93.5951   20.1651   -2.0756 H         1 5PV         0.0557
     15 H2         93.4578   20.9964    0.2368 H         1 5PV         0.0599
     16 H3         94.7598   19.8938    2.0165 H         1 5PV         0.0559
     17 H4         96.2378   17.9818    1.4634 H         1 5PV         0.0599
     18 H5         96.3670   17.1301   -0.8625 H         1 5PV         0.0557
     19 H6         96.0323   17.5572   -3.1706 H         1 5PV         0.0426
     20 H7         95.0180   18.9332   -3.7224 H         1 5PV         0.0426
     21 H8         94.0489   16.2221   -2.7570 H         1 5PV         0.0288
     22 H9         94.0949   16.8092   -4.4540 H         1 5PV         0.0288
     23 H10        92.5102   18.7147   -3.5918 H         1 5PV         0.0284
     24 H11        92.2353   17.6276   -2.1885 H         1 5PV         0.0284
     25 H12        91.6919   17.0701   -5.1476 H         1 5PV         0.0430
     26 H13        90.5093   17.1306   -3.7968 H         1 5PV         0.0430
@<TRIPOS>BOND
     1    1    2 ar 
     2    1    6 ar 
     3    1    7 1  
     4    2    3 ar 
     5    3    4 ar 
     6    4    5 ar 
     7    5    6 ar 
     8    7    8 1  
     9    8    9 1  
    10    9   10 1  
    11   10   11 1  
    12   11   12 ar 
    13   11   13 ar 
    14    2   14 1  
    15    3   15 1  
    16    4   16 1  
    17    5   17 1  
    18    6   18 1  
    19    7   19 1  
    20    7   20 1  
    21    8   21 1  
    22    8   22 1  
    23    9   23 1  
    24    9   24 1  
    25   10   25 1  
    26   10   26 1  
@<TRIPOS>SUBSTRUCTURE
     1 5PV         1

