### 
### Created by X-TOOL on Mon Sep 10 21:12:54 2018
### 

@<TRIPOS>MOLECULE
2ayp_ligand
   41    44     1     0     0
SMALL
GAST_HUCK


@<TRIPOS>ATOM
      1 C1         11.8800   -3.4810   15.0870 C.ar      1 43A         0.1182
      2 C2         11.1140   -2.2090   15.1650 C.ar      1 43A         0.1205
      3 C3          9.7490   -2.2520   15.7760 C.ar      1 43A        -0.0340
      4 C4          9.1680   -3.4930   16.2880 C.ar      1 43A        -0.0424
      5 C5          9.9650   -4.7120   16.1830 C.ar      1 43A        -0.0734
      6 C6         11.2930   -4.7110   15.5960 C.ar      1 43A        -0.0395
      7 O7         13.1580   -3.5130   14.5320 O.3       1 43A        -0.3355
      8 O8         11.7880   -1.0420   14.6300 O.3       1 43A        -0.3248
      9 C9         11.7100    0.2220   15.2860 C.3       1 43A         0.0569
     10 C10         7.7800   -3.5120   16.9090 C.ar      1 43A        -0.0437
     11 C11         7.3700   -2.4480   17.8560 C.ar      1 43A        -0.0394
     12 C12         6.0340   -2.4760   18.4390 C.ar      1 43A         0.0682
     13 C13         5.1020   -3.5150   18.1210 C.ar      1 43A        -0.0005
     14 C14         5.4640   -4.5820   17.1950 C.ar      1 43A        -0.0722
     15 C15         6.8040   -4.5680   16.6000 C.ar      1 43A        -0.0742
     16 N16         5.4650   -1.6090   19.3160 N.am      1 43A        -0.2381
     17 C17         4.1910   -1.9840   19.6200 C.2       1 43A         0.2176
     18 C18         3.8210   -3.2850   18.8580 C.2       1 43A         0.0435
     19 O19         3.4730   -1.3460   20.3940 O.2       1 43A        -0.3811
     20 C20         2.7120   -4.0880   18.7820 C.2       1 43A        -0.0226
     21 C21         1.3370   -3.7400   19.2330 C.2       1 43A         0.0618
     22 N22         1.0230   -2.7190   19.7800 N.pl3     1 43A        -0.2804
     23 C23        -0.4070   -2.6860   20.0990 C.2       1 43A         0.0266
     24 C24        -0.8870   -3.8410   19.6560 C.2       1 43A        -0.0677
     25 C25         0.2590   -4.5280   19.0890 C.2       1 43A        -0.0631
     26 H1          9.1732   -1.3359   15.8412 H         1 43A         0.0511
     27 H2          9.5536   -5.6439   16.5537 H         1 43A         0.0508
     28 H3         11.8533   -5.6370   15.5363 H         1 43A         0.0516
     29 H4         13.1640   -4.1031   13.7875 H         1 43A         0.2453
     30 H5         12.2880    0.9660   14.7182 H         1 43A         0.0573
     31 H6         12.1231    0.1341   16.3017 H         1 43A         0.0573
     32 H7         10.6588    0.5408   15.3440 H         1 43A         0.0573
     33 H8          8.0602   -1.6529   18.1139 H         1 43A         0.0480
     34 H9          4.7581   -5.3679   16.9520 H         1 43A         0.0550
     35 H10         7.0833   -5.3585   15.9128 H         1 43A         0.0482
     36 H11         5.9213   -0.8014   19.6896 H         1 43A         0.2245
     37 H12         2.8510   -5.0776   18.3491 H         1 43A         0.0706
     38 H13         1.6802   -1.9568   19.9991 H         1 43A         0.2337
     39 H14        -0.9569   -1.8863   20.5929 H         1 43A         0.0933
     40 H15        -1.9154   -4.1957   19.7067 H         1 43A         0.0347
     41 H16         0.2468   -5.5136   18.6261 H         1 43A         0.0407
@<TRIPOS>BOND
     1    1    2 ar 
     2    1    6 ar 
     3    1    7 1  
     4    2    3 ar 
     5    2    8 1  
     6    3    4 ar 
     7    4    5 ar 
     8    4   10 1  
     9    5    6 ar 
    10    8    9 1  
    11   10   11 ar 
    12   10   15 ar 
    13   11   12 ar 
    14   12   13 ar 
    15   12   16 1  
    16   13   14 ar 
    17   13   18 1  
    18   14   15 ar 
    19   16   17 am 
    20   17   18 1  
    21   17   19 2  
    22   18   20 2  
    23   20   21 1  
    24   21   22 1  
    25   21   25 2  
    26   22   23 1  
    27   23   24 2  
    28   24   25 1  
    29    3   26 1  
    30    5   27 1  
    31    6   28 1  
    32    7   29 1  
    33    9   30 1  
    34    9   31 1  
    35    9   32 1  
    36   11   33 1  
    37   14   34 1  
    38   15   35 1  
    39   16   36 1  
    40   20   37 1  
    41   22   38 1  
    42   23   39 1  
    43   24   40 1  
    44   25   41 1  
@<TRIPOS>SUBSTRUCTURE
     1 43A         1

