### 
### Created by X-TOOL on Mon Sep 10 21:12:53 2018
### 

@<TRIPOS>MOLECULE
2az5_ligand
   74    78     1     0     0
SMALL
GAST_HUCK


@<TRIPOS>ATOM
      1 F9        -16.5600   70.3360   36.1580 F         1 307        -0.2205
      2 C7        -15.8540   71.4690   36.2620 C.3       1 307         0.3746
      3 F10       -14.6290   71.0840   35.9370 F         1 307        -0.2205
      4 F8        -15.8090   71.9650   37.4750 F         1 307        -0.2205
      5 C6        -16.3390   72.4100   35.1830 C.ar      1 307         0.0414
      6 C11       -17.6590   72.3880   34.7240 C.ar      1 307        -0.0010
      7 C5        -15.4290   73.2600   34.5740 C.ar      1 307        -0.0392
      8 C4        -15.8650   74.0760   33.5430 C.ar      1 307        -0.0369
      9 C3        -17.1950   74.0420   33.1310 C.ar      1 307        -0.0014
     10 C1        -18.1670   73.2040   33.6900 C.ar      1 307         0.1159
     11 N2        -19.4480   73.2000   33.2410 N.pl3     1 307        -0.2262
     12 C12       -19.8930   73.9820   32.2240 C.2       1 307         0.0403
     13 C16       -20.4260   72.4410   33.7610 C.ar      1 307         0.0797
     14 C20       -20.6080   71.4650   34.8110 C.ar      1 307        -0.0405
     15 C19       -21.8750   70.8890   35.0210 C.ar      1 307        -0.0757
     16 C18       -22.9880   71.2370   34.2500 C.ar      1 307        -0.0784
     17 C15       -21.5420   72.7650   33.0240 C.ar      1 307        -0.0121
     18 C17       -22.8480   72.1890   33.2380 C.ar      1 307        -0.0733
     19 C13       -21.2710   73.7390   32.0880 C.2       1 307         0.0019
     20 C14       -22.3050   74.2100   31.0930 C.3       1 307        -0.0136
     21 N21       -22.8040   75.5370   30.8910 N.4       1 307         0.2439
     22 C22       -23.6960   76.1190   31.8770 C.3       1 307        -0.0421
     23 C23       -22.5030   76.1330   29.5960 C.3       1 307         0.0098
     24 C24       -22.0110   77.5610   29.7640 C.3       1 307         0.0098
     25 N25       -20.6990   77.5470   30.4010 N.4       1 307         0.2447
     26 C28       -19.6370   76.6140   30.0370 C.3       1 307        -0.0420
     27 C26       -20.5150   78.5670   31.3990 C.3       1 307        -0.0028
     28 C27       -19.7610   78.0520   32.5940 C.2       1 307         0.0672
     29 C29       -18.4910   78.4640   32.7370 C.2       1 307         0.1037
     30 O30       -17.8540   78.3100   34.0250 O.3       1 307        -0.2557
     31 C31       -18.3170   77.3690   34.8990 C.ar      1 307         0.1295
     32 C32       -19.5420   76.7720   34.6710 C.ar      1 307         0.0480
     33 C35       -20.0470   75.8310   35.5590 C.ar      1 307        -0.0555
     34 C33       -20.3280   77.2140   33.4790 C.2       1 307         0.1208
     35 O34       -21.4920   76.8530   33.3840 O.2       1 307        -0.4140
     36 C40       -17.5680   77.0260   36.0140 C.ar      1 307        -0.0246
     37 C38       -18.0570   76.0750   36.8950 C.ar      1 307        -0.0455
     38 C39       -17.1800   75.7460   38.0770 C.3       1 307        -0.0332
     39 C36       -19.2940   75.4650   36.6610 C.ar      1 307        -0.0476
     40 C37       -19.8780   74.4240   37.5940 C.3       1 307        -0.0367
     41 H1        -18.3433   71.6930   35.1970 H         1 307         0.0787
     42 H2        -14.3951   73.2857   34.8986 H         1 307         0.0788
     43 H3        -15.1666   74.7453   33.0538 H         1 307         0.0679
     44 H4        -17.4959   74.7052   32.3281 H         1 307         0.0816
     45 H5        -19.2950   74.6683   31.6262 H         1 307         0.0812
     46 H6        -19.7703   71.1770   35.4358 H         1 307         0.0552
     47 H7        -21.9916   70.1512   35.8065 H         1 307         0.0533
     48 H8        -23.9497   70.7727   34.4358 H         1 307         0.0515
     49 H9        -23.6953   72.4867   32.6310 H         1 307         0.0545
     50 H10       -23.1989   73.6096   31.3177 H         1 307         0.0904
     51 H11       -21.9013   73.9142   30.1135 H         1 307         0.0904
     52 H12       -22.0011   75.9683   31.3217 H         1 307         0.2041
     53 H13       -23.9777   77.1347   31.5623 H         1 307         0.0778
     54 H14       -23.1864   76.1649   32.8507 H         1 307         0.0778
     55 H15       -24.6000   75.4986   31.9652 H         1 307         0.0778
     56 H16       -23.4135   76.1350   28.9788 H         1 307         0.0868
     57 H17       -21.7232   75.5387   29.0973 H         1 307         0.0868
     58 H18       -22.7185   78.1219   30.3923 H         1 307         0.0868
     59 H19       -21.9354   78.0421   28.7777 H         1 307         0.0868
     60 H20       -21.0228   76.8927   31.0961 H         1 307         0.2041
     61 H21       -18.7508   76.8062   30.6597 H         1 307         0.0778
     62 H22       -19.3767   76.7501   28.9769 H         1 307         0.0778
     63 H23       -19.9831   75.5827   30.2001 H         1 307         0.0778
     64 H24       -21.5017   78.9248   31.7281 H         1 307         0.0914
     65 H25       -19.9517   79.4012   30.9554 H         1 307         0.0914
     66 H26       -17.9522   78.9051   31.8997 H         1 307         0.1116
     67 H27       -21.0217   75.3875   35.3905 H         1 307         0.0558
     68 H28       -16.6088   77.4974   36.1949 H         1 307         0.0492
     69 H29       -16.2659   76.3566   38.0366 H         1 307         0.0385
     70 H30       -16.9103   74.6800   38.0481 H         1 307         0.0385
     71 H31       -17.7240   75.9615   39.0085 H         1 307         0.0385
     72 H32       -20.8520   74.0900   37.2070 H         1 307         0.0360
     73 H33       -20.0115   74.8617   38.5943 H         1 307         0.0360
     74 H34       -19.1946   73.5644   37.6581 H         1 307         0.0360
@<TRIPOS>BOND
     1    1    2 1  
     2    2    3 1  
     3    2    4 1  
     4    2    5 1  
     5    5    6 ar 
     6    5    7 ar 
     7    6   10 ar 
     8    7    8 ar 
     9    8    9 ar 
    10    9   10 ar 
    11   10   11 1  
    12   11   12 1  
    13   11   13 1  
    14   12   19 2  
    15   13   14 ar 
    16   13   17 ar 
    17   14   15 ar 
    18   15   16 ar 
    19   16   18 ar 
    20   17   18 ar 
    21   17   19 1  
    22   19   20 1  
    23   20   21 1  
    24   21   22 1  
    25   21   23 1  
    26   23   24 1  
    27   24   25 1  
    28   25   26 1  
    29   25   27 1  
    30   27   28 1  
    31   28   29 2  
    32   28   34 1  
    33   29   30 1  
    34   30   31 1  
    35   31   32 ar 
    36   31   36 ar 
    37   32   33 ar 
    38   32   34 1  
    39   33   39 ar 
    40   34   35 2  
    41   36   37 ar 
    42   37   38 1  
    43   37   39 ar 
    44   39   40 1  
    45    6   41 1  
    46    7   42 1  
    47    8   43 1  
    48    9   44 1  
    49   12   45 1  
    50   14   46 1  
    51   15   47 1  
    52   16   48 1  
    53   18   49 1  
    54   20   50 1  
    55   20   51 1  
    56   21   52 1  
    57   22   53 1  
    58   22   54 1  
    59   22   55 1  
    60   23   56 1  
    61   23   57 1  
    62   24   58 1  
    63   24   59 1  
    64   25   60 1  
    65   26   61 1  
    66   26   62 1  
    67   26   63 1  
    68   27   64 1  
    69   27   65 1  
    70   29   66 1  
    71   33   67 1  
    72   36   68 1  
    73   38   69 1  
    74   38   70 1  
    75   38   71 1  
    76   40   72 1  
    77   40   73 1  
    78   40   74 1  
@<TRIPOS>SUBSTRUCTURE
     1 307         1

