### 
### Created by X-TOOL on Mon Sep 10 21:12:55 2018
### 

@<TRIPOS>MOLECULE
2az8_ligand
   66    67     1     0     0
SMALL
GAST_HUCK


@<TRIPOS>ATOM
      1 C         -27.1160   38.0960   19.2660 C.2       1 3TL         0.3239
      2 O1        -27.2050   39.3340   19.2570 O.2       1 3TL        -0.3773
      3 O2        -27.3250   37.5400   18.0500 O.3       1 3TL        -0.2506
      4 C1'       -28.2130   38.1180   17.1260 C.3       1 3TL         0.1113
      5 C1        -29.6130   38.4910   17.3220 C.ar      1 3TL        -0.0130
      6 C2        -29.9660   39.7100   16.5430 C.ar      1 3TL        -0.0578
      7 C3        -31.2700   40.1690   16.6460 C.ar      1 3TL        -0.0685
      8 C4        -32.2020   39.4300   17.5070 C.ar      1 3TL        -0.0687
      9 C5        -31.8590   38.2020   18.2980 C.ar      1 3TL        -0.0685
     10 C6        -30.4980   37.7100   18.1980 C.ar      1 3TL        -0.0578
     11 N         -26.8780   37.1090   20.1170 N.am      1 3TL        -0.2413
     12 CA        -26.6230   37.2710   21.4170 C.3       1 3TL         0.1300
     13 C         -25.1420   37.0150   21.7730 C.2       1 3TL         0.2036
     14 O         -24.5030   36.0030   21.3890 O.2       1 3TL        -0.3944
     15 CB        -27.6020   36.2060   22.0180 C.3       1 3TL        -0.0244
     16 N         -24.6950   37.9970   22.5700 N.am      1 3TL        -0.2635
     17 CA        -23.3420   38.1000   23.1880 C.3       1 3TL         0.1331
     18 C         -23.5470   38.4730   24.6480 C.2       1 3TL         0.2024
     19 O         -23.7860   39.5560   25.1520 O.2       1 3TL        -0.3945
     20 CB        -22.4330   39.0530   22.3770 C.3       1 3TL        -0.0063
     21 CG1       -21.0950   39.1160   23.0460 C.3       1 3TL        -0.0584
     22 CG2       -22.2220   38.6210   20.9060 C.3       1 3TL        -0.0584
     23 N         -23.4030   37.4180   25.4500 N.am      1 3TL        -0.2778
     24 CA        -23.5000   37.3670   26.9690 C.3       1 3TL         0.0745
     25 C         -22.3020   36.4660   27.2640 C.3       1 3TL         0.0689
     26 O         -22.0650   35.2140   26.8080 O.3       1 3TL        -0.3926
     27 CB        -24.7470   36.8200   27.4780 C.3       1 3TL         0.0061
     28 CG        -26.0620   37.1720   27.0740 C.ar      1 3TL        -0.0408
     29 CD1       -26.8090   36.5680   25.9410 C.ar      1 3TL        -0.0603
     30 CD2       -26.5890   38.1760   27.8800 C.ar      1 3TL        -0.0603
     31 CE1       -28.1640   37.0350   25.6160 C.ar      1 3TL        -0.0686
     32 CE2       -27.8830   38.6540   27.6130 C.ar      1 3TL        -0.0686
     33 CZ        -28.6690   38.0830   26.4860 C.ar      1 3TL        -0.0687
     34 H1        -28.2306   37.4132   16.2817 H         1 3TL         0.0776
     35 H2        -27.7196   39.0506   16.8149 H         1 3TL         0.0776
     36 H3        -29.2353   40.2163   15.9226 H         1 3TL         0.0557
     37 H4        -31.5933   41.0508   16.1048 H         1 3TL         0.0599
     38 H5        -33.2182   39.8009   17.5767 H         1 3TL         0.0559
     39 H6        -32.5962   37.7041   18.9173 H         1 3TL         0.0599
     40 H7        -30.1580   36.8295   18.7311 H         1 3TL         0.0557
     41 H8        -26.8903   36.1752   19.7595 H         1 3TL         0.1899
     42 H9        -26.8912   38.2845   21.7501 H         1 3TL         0.0796
     43 H10       -27.5170   36.2075   23.1147 H         1 3TL         0.0277
     44 H11       -27.3420   35.2095   21.6315 H         1 3TL         0.0277
     45 H12       -28.6344   36.4532   21.7300 H         1 3TL         0.0277
     46 H13       -25.3364   38.7375   22.7707 H         1 3TL         0.1883
     47 H14       -22.8684   37.1076   23.1610 H         1 3TL         0.0802
     48 H15       -22.8911   40.0530   22.3809 H         1 3TL         0.0343
     49 H16       -20.4343   39.7906   22.4817 H         1 3TL         0.0234
     50 H17       -20.6522   38.1095   23.0759 H         1 3TL         0.0234
     51 H18       -21.2154   39.4943   24.0719 H         1 3TL         0.0234
     52 H19       -23.1952   38.5686   20.3961 H         1 3TL         0.0234
     53 H20       -21.7406   37.6323   20.8796 H         1 3TL         0.0234
     54 H21       -21.5803   39.3550   20.3967 H         1 3TL         0.0234
     55 H22       -23.2061   36.5489   24.9962 H         1 3TL         0.1857
     56 H23       -23.3612   38.3684   27.4025 H         1 3TL         0.0601
     57 H24       -22.2906   36.3691   28.3597 H         1 3TL         0.0582
     58 H25       -21.4286   37.0500   26.9384 H         1 3TL         0.0582
     59 H26       -22.0225   35.2266   25.8591 H         1 3TL         0.2095
     60 H27       -24.7213   37.0149   28.5603 H         1 3TL         0.0449
     61 H28       -24.6757   35.7371   27.2986 H         1 3TL         0.0449
     62 H29       -26.3532   35.7803   25.3521 H         1 3TL         0.0557
     63 H30       -26.0103   38.5832   28.7012 H         1 3TL         0.0557
     64 H31       -28.7408   36.6297   24.7925 H         1 3TL         0.0599
     65 H32       -28.3086   39.4387   28.2280 H         1 3TL         0.0599
     66 H33       -29.6663   38.4675   26.3055 H         1 3TL         0.0559
@<TRIPOS>BOND
     1    1    2 2  
     2    1    3 1  
     3    1   11 am 
     4    3    4 1  
     5    4    5 1  
     6    5    6 ar 
     7    5   10 ar 
     8    6    7 ar 
     9    7    8 ar 
    10    8    9 ar 
    11    9   10 ar 
    12   11   12 1  
    13   12   13 1  
    14   12   15 1  
    15   13   14 2  
    16   13   16 am 
    17   16   17 1  
    18   17   18 1  
    19   17   20 1  
    20   18   19 2  
    21   18   23 am 
    22   20   21 1  
    23   20   22 1  
    24   23   24 1  
    25   24   25 1  
    26   24   27 1  
    27   25   26 1  
    28   27   28 1  
    29   28   29 ar 
    30   28   30 ar 
    31   29   31 ar 
    32   30   32 ar 
    33   31   33 ar 
    34   32   33 ar 
    35    4   34 1  
    36    4   35 1  
    37    6   36 1  
    38    7   37 1  
    39    8   38 1  
    40    9   39 1  
    41   10   40 1  
    42   11   41 1  
    43   12   42 1  
    44   15   43 1  
    45   15   44 1  
    46   15   45 1  
    47   16   46 1  
    48   17   47 1  
    49   20   48 1  
    50   21   49 1  
    51   21   50 1  
    52   21   51 1  
    53   22   52 1  
    54   22   53 1  
    55   22   54 1  
    56   23   55 1  
    57   24   56 1  
    58   25   57 1  
    59   25   58 1  
    60   26   59 1  
    61   27   60 1  
    62   27   61 1  
    63   29   62 1  
    64   30   63 1  
    65   31   64 1  
    66   32   65 1  
    67   33   66 1  
@<TRIPOS>SUBSTRUCTURE
     1 3TL         1

