### 
### Created by X-TOOL on Mon Sep 10 21:12:55 2018
### 

@<TRIPOS>MOLECULE
2az9_ligand
   66    67     1     0     0
SMALL
GAST_HUCK


@<TRIPOS>ATOM
      1 C          15.5740   58.5820   33.2330 C.2       1 3TL         0.3239
      2 O1         16.7050   58.1020   33.4310 O.2       1 3TL        -0.3773
      3 O2         15.3550   58.8660   31.9460 O.3       1 3TL        -0.2506
      4 C1'        15.6170   60.1340   31.4390 C.3       1 3TL         0.1113
      5 C1         16.8830   60.8280   31.3730 C.ar      1 3TL        -0.0130
      6 C2         17.8180   60.1720   30.4060 C.ar      1 3TL        -0.0578
      7 C3         19.0660   60.7600   30.2560 C.ar      1 3TL        -0.0685
      8 C4         19.3720   61.9730   31.0520 C.ar      1 3TL        -0.0687
      9 C5         18.4380   62.6350   32.0250 C.ar      1 3TL        -0.0685
     10 C6         17.1300   62.0340   32.1940 C.ar      1 3TL        -0.0578
     11 N          14.4730   58.9200   33.8900 N.am      1 3TL        -0.2413
     12 CA         14.2600   58.8090   35.1890 C.3       1 3TL         0.1300
     13 C          13.3200   57.6450   35.5450 C.2       1 3TL         0.2036
     14 O          12.0910   57.5550   35.2170 O.2       1 3TL        -0.3944
     15 CB         13.7480   60.2410   35.4820 C.3       1 3TL        -0.0244
     16 N          14.0300   56.7730   36.2460 N.am      1 3TL        -0.2635
     17 CA         13.5790   55.4990   36.8190 C.3       1 3TL         0.1331
     18 C          13.9890   55.5170   38.2860 C.2       1 3TL         0.2024
     19 O          15.0550   55.2180   38.8420 O.2       1 3TL        -0.3945
     20 CB         14.0730   54.3160   35.9300 C.3       1 3TL        -0.0063
     21 CG1        13.6250   52.9860   36.4700 C.3       1 3TL        -0.0584
     22 CG2        13.6040   54.3760   34.4520 C.3       1 3TL        -0.0584
     23 N          12.9910   55.9290   39.0480 N.am      1 3TL        -0.2778
     24 CA         12.9760   56.0840   40.5510 C.3       1 3TL         0.0745
     25 C          11.6590   55.3810   40.8920 C.3       1 3TL         0.0689
     26 O          10.4790   55.8270   40.4000 O.3       1 3TL        -0.3926
     27 CB         13.4360   57.3960   41.0890 C.3       1 3TL         0.0061
     28 CG         13.7000   58.6390   40.3910 C.ar      1 3TL        -0.0408
     29 CD1        12.6690   59.5670   39.8100 C.ar      1 3TL        -0.0603
     30 CD2        15.0810   58.9140   40.3170 C.ar      1 3TL        -0.0603
     31 CE1        13.0640   60.8350   39.1240 C.ar      1 3TL        -0.0686
     32 CE2        15.5040   60.1200   39.6650 C.ar      1 3TL        -0.0686
     33 CZ         14.5040   61.0810   39.0700 C.ar      1 3TL        -0.0687
     34 H1         14.9637   60.8040   32.0173 H         1 3TL         0.0776
     35 H2         15.2691   60.0927   30.3963 H         1 3TL         0.0776
     36 H3         17.5353   59.2842   29.8519 H         1 3TL         0.0557
     37 H4         19.7985   60.3432   29.5743 H         1 3TL         0.0599
     38 H5         20.3511   62.4193   30.9210 H         1 3TL         0.0559
     39 H6         18.7293   63.5221   32.5757 H         1 3TL         0.0599
     40 H7         16.3872   62.4383   32.8721 H         1 3TL         0.0557
     41 H8         13.7252   59.2988   33.3448 H         1 3TL         0.1899
     42 H9         15.2062   58.6366   35.7229 H         1 3TL         0.0796
     43 H10        13.5135   60.3346   36.5526 H         1 3TL         0.0277
     44 H11        12.8415   60.4346   34.8898 H         1 3TL         0.0277
     45 H12        14.5254   60.9708   35.2118 H         1 3TL         0.0277
     46 H13        14.9883   57.0115   36.4036 H         1 3TL         0.1883
     47 H14        12.4797   55.4691   36.7924 H         1 3TL         0.0802
     48 H15        15.1726   54.3451   35.9387 H         1 3TL         0.0343
     49 H16        13.9932   52.1819   35.8159 H         1 3TL         0.0234
     50 H17        12.5260   52.9558   36.5050 H         1 3TL         0.0234
     51 H18        14.0281   52.8473   37.4840 H         1 3TL         0.0234
     52 H19        13.9093   55.3355   34.0091 H         1 3TL         0.0234
     53 H20        12.5085   54.2853   34.4109 H         1 3TL         0.0234
     54 H21        14.0618   53.5498   33.8882 H         1 3TL         0.0234
     55 H22        12.1439   56.1668   38.5728 H         1 3TL         0.1857
     56 H23        13.7520   55.4071   40.9380 H         1 3TL         0.0601
     57 H24        11.5683   55.4030   41.9880 H         1 3TL         0.0582
     58 H25        11.7644   54.3397   40.5536 H         1 3TL         0.0582
     59 H26         9.7755   55.2718   40.7154 H         1 3TL         0.2095
     60 H27        14.3844   57.1633   41.5953 H         1 3TL         0.0449
     61 H28        12.6761   57.6626   41.8383 H         1 3TL         0.0449
     62 H29        11.6186   59.3113   39.8903 H         1 3TL         0.0557
     63 H30        15.8062   58.2301   40.7428 H         1 3TL         0.0557
     64 H31        12.3385   61.5194   38.6993 H         1 3TL         0.0599
     65 H32        16.5623   60.3452   39.5985 H         1 3TL         0.0599
     66 H33        14.8649   61.9821   38.5874 H         1 3TL         0.0559
@<TRIPOS>BOND
     1    1    2 2  
     2    1    3 1  
     3    1   11 am 
     4    3    4 1  
     5    4    5 1  
     6    5    6 ar 
     7    5   10 ar 
     8    6    7 ar 
     9    7    8 ar 
    10    8    9 ar 
    11    9   10 ar 
    12   11   12 1  
    13   12   13 1  
    14   12   15 1  
    15   13   14 2  
    16   13   16 am 
    17   16   17 1  
    18   17   18 1  
    19   17   20 1  
    20   18   19 2  
    21   18   23 am 
    22   20   21 1  
    23   20   22 1  
    24   23   24 1  
    25   24   25 1  
    26   24   27 1  
    27   25   26 1  
    28   27   28 1  
    29   28   29 ar 
    30   28   30 ar 
    31   29   31 ar 
    32   30   32 ar 
    33   31   33 ar 
    34   32   33 ar 
    35    4   34 1  
    36    4   35 1  
    37    6   36 1  
    38    7   37 1  
    39    8   38 1  
    40    9   39 1  
    41   10   40 1  
    42   11   41 1  
    43   12   42 1  
    44   15   43 1  
    45   15   44 1  
    46   15   45 1  
    47   16   46 1  
    48   17   47 1  
    49   20   48 1  
    50   21   49 1  
    51   21   50 1  
    52   21   51 1  
    53   22   52 1  
    54   22   53 1  
    55   22   54 1  
    56   23   55 1  
    57   24   56 1  
    58   25   57 1  
    59   25   58 1  
    60   26   59 1  
    61   27   60 1  
    62   27   61 1  
    63   29   62 1  
    64   30   63 1  
    65   31   64 1  
    66   32   65 1  
    67   33   66 1  
@<TRIPOS>SUBSTRUCTURE
     1 3TL         1

