### 
### Created by X-TOOL on Mon Sep 10 21:12:54 2018
### 

@<TRIPOS>MOLECULE
2azb_ligand
   66    67     1     0     0
SMALL
GAST_HUCK


@<TRIPOS>ATOM
      1 C         -26.8470   37.2260   19.4730 C.2       1 3TL         0.3239
      2 O1        -26.7550   38.4970   19.6010 O.2       1 3TL        -0.3773
      3 O2        -27.1880   36.6440   18.0940 O.3       1 3TL        -0.2506
      4 C1'       -27.9010   37.4160   17.1510 C.3       1 3TL         0.1113
      5 C1        -29.3770   37.6270   17.4000 C.ar      1 3TL        -0.0130
      6 C2        -29.8650   38.9920   17.4440 C.ar      1 3TL        -0.0578
      7 C3        -31.2670   39.2600   17.6770 C.ar      1 3TL        -0.0685
      8 C4        -32.1800   38.1470   17.8660 C.ar      1 3TL        -0.0687
      9 C5        -31.6770   36.7670   17.8200 C.ar      1 3TL        -0.0685
     10 C6        -30.2470   36.4850   17.5820 C.ar      1 3TL        -0.0578
     11 N         -26.7100   36.2950   20.3820 N.am      1 3TL        -0.2413
     12 CA        -26.4330   36.5970   21.6140 C.3       1 3TL         0.1300
     13 C         -24.9340   36.4930   21.9900 C.2       1 3TL         0.2036
     14 O         -24.2950   35.4450   21.6920 O.2       1 3TL        -0.3944
     15 CB        -27.3800   35.6640   22.2700 C.3       1 3TL        -0.0244
     16 N         -24.5090   37.5580   22.6650 N.am      1 3TL        -0.2635
     17 CA        -23.1720   37.7500   23.2530 C.3       1 3TL         0.1331
     18 C         -23.3400   37.9860   24.7700 C.2       1 3TL         0.2024
     19 O         -23.7300   39.0530   25.1190 O.2       1 3TL        -0.3945
     20 CB        -22.3990   38.8580   22.4950 C.3       1 3TL        -0.0063
     21 CG1       -21.0300   39.0390   23.0890 C.3       1 3TL        -0.0584
     22 CG2       -22.3120   38.4580   21.0360 C.3       1 3TL        -0.0584
     23 N         -23.0240   36.9680   25.5520 N.am      1 3TL        -0.2778
     24 CA        -23.0060   36.7260   27.0160 C.3       1 3TL         0.0745
     25 C         -21.6650   36.0700   27.3160 C.3       1 3TL         0.0689
     26 O         -21.3930   34.8410   26.7420 O.3       1 3TL        -0.3926
     27 CB        -24.1590   36.2340   27.7960 C.3       1 3TL         0.0061
     28 CG        -25.5180   36.2230   27.2610 C.ar      1 3TL        -0.0408
     29 CD1       -26.0690   35.0290   26.5620 C.ar      1 3TL        -0.0603
     30 CD2       -26.2090   37.4310   27.4880 C.ar      1 3TL        -0.0603
     31 CE1       -27.4110   35.0030   26.0280 C.ar      1 3TL        -0.0686
     32 CE2       -27.5480   37.3780   26.9480 C.ar      1 3TL        -0.0686
     33 CZ        -28.1250   36.2200   26.2480 C.ar      1 3TL        -0.0687
     34 H1        -27.7984   36.9212   16.1740 H         1 3TL         0.0776
     35 H2        -27.4278   38.4082   17.1110 H         1 3TL         0.0776
     36 H3        -29.1751   39.8159   17.3015 H         1 3TL         0.0557
     37 H4        -31.6320   40.2802   17.7101 H         1 3TL         0.0599
     38 H5        -33.2333   38.3341   18.0411 H         1 3TL         0.0559
     39 H6        -32.3666   35.9429   17.9630 H         1 3TL         0.0599
     40 H7        -29.8670   35.4704   17.5454 H         1 3TL         0.0557
     41 H8        -26.8204   35.3353   20.1237 H         1 3TL         0.1899
     42 H9        -26.7331   37.6337   21.8265 H         1 3TL         0.0796
     43 H10       -27.2991   35.7672   23.3622 H         1 3TL         0.0277
     44 H11       -27.1370   34.6310   21.9803 H         1 3TL         0.0277
     45 H12       -28.4066   35.9015   21.9544 H         1 3TL         0.0277
     46 H13       -25.1639   38.3041   22.7854 H         1 3TL         0.1883
     47 H14       -22.6018   36.8179   23.1267 H         1 3TL         0.0802
     48 H15       -22.9486   39.8073   22.5774 H         1 3TL         0.0343
     49 H16       -20.4940   39.8279   22.5410 H         1 3TL         0.0234
     50 H17       -20.4700   38.0952   23.0140 H         1 3TL         0.0234
     51 H18       -21.1242   39.3264   24.1466 H         1 3TL         0.0234
     52 H19       -23.3263   38.3330   20.6290 H         1 3TL         0.0234
     53 H20       -21.7622   37.5094   20.9480 H         1 3TL         0.0234
     54 H21       -21.7845   39.2413   20.4719 H         1 3TL         0.0234
     55 H22       -22.7250   36.1682   25.0315 H         1 3TL         0.1857
     56 H23       -22.9052   37.7428   27.4233 H         1 3TL         0.0601
     57 H24       -21.6023   35.9410   28.4066 H         1 3TL         0.0582
     58 H25       -20.8805   36.7656   26.9832 H         1 3TL         0.0582
     59 H26       -20.5296   34.5509   27.0118 H         1 3TL         0.2095
     60 H27       -24.1946   36.8464   28.7090 H         1 3TL         0.0449
     61 H28       -23.9264   35.1923   28.0620 H         1 3TL         0.0449
     62 H29       -25.4429   34.1512   26.4503 H         1 3TL         0.0557
     63 H30       -25.7897   38.2887   28.0014 H         1 3TL         0.0557
     64 H31       -27.8328   34.1474   25.5131 H         1 3TL         0.0599
     65 H32       -28.1730   38.2556   27.0674 H         1 3TL         0.0599
     66 H33       -29.1423   36.2941   25.8811 H         1 3TL         0.0559
@<TRIPOS>BOND
     1    1    2 2  
     2    1    3 1  
     3    1   11 am 
     4    3    4 1  
     5    4    5 1  
     6    5    6 ar 
     7    5   10 ar 
     8    6    7 ar 
     9    7    8 ar 
    10    8    9 ar 
    11    9   10 ar 
    12   11   12 1  
    13   12   13 1  
    14   12   15 1  
    15   13   14 2  
    16   13   16 am 
    17   16   17 1  
    18   17   18 1  
    19   17   20 1  
    20   18   19 2  
    21   18   23 am 
    22   20   21 1  
    23   20   22 1  
    24   23   24 1  
    25   24   25 1  
    26   24   27 1  
    27   25   26 1  
    28   27   28 1  
    29   28   29 ar 
    30   28   30 ar 
    31   29   31 ar 
    32   30   32 ar 
    33   31   33 ar 
    34   32   33 ar 
    35    4   34 1  
    36    4   35 1  
    37    6   36 1  
    38    7   37 1  
    39    8   38 1  
    40    9   39 1  
    41   10   40 1  
    42   11   41 1  
    43   12   42 1  
    44   15   43 1  
    45   15   44 1  
    46   15   45 1  
    47   16   46 1  
    48   17   47 1  
    49   20   48 1  
    50   21   49 1  
    51   21   50 1  
    52   21   51 1  
    53   22   52 1  
    54   22   53 1  
    55   22   54 1  
    56   23   55 1  
    57   24   56 1  
    58   25   57 1  
    59   25   58 1  
    60   26   59 1  
    61   27   60 1  
    62   27   61 1  
    63   29   62 1  
    64   30   63 1  
    65   31   64 1  
    66   32   65 1  
    67   33   66 1  
@<TRIPOS>SUBSTRUCTURE
     1 3TL         1

