### 
### Created by X-TOOL on Mon Sep 10 21:12:53 2018
### 

@<TRIPOS>MOLECULE
2azr_ligand
   22    23     1     0     0
SMALL
GAST_HUCK


@<TRIPOS>ATOM
      1 C1         46.4550   12.2720    2.9360 C.ar      1 982        -0.0407
      2 C2         46.4850   11.0190    2.3170 C.ar      1 982        -0.0417
      3 C3         45.8240   10.8500    1.1090 C.ar      1 982         0.0028
      4 N1         45.1360   11.8170    0.4610 N.ar      1 982        -0.2864
      5 C5         45.1370   13.0150    1.0940 C.ar      1 982         0.1076
      6 C6         45.7540   13.3290    2.3110 C.ar      1 982         0.0463
      7 S10        44.3260   14.3420    0.4060 S.3       1 982        -0.0273
      8 C11        44.7650   15.3620    1.7120 C.2       1 982         0.0859
      9 C12        45.5370   14.7090    2.6630 C.2       1 982         0.1164
     10 C13        44.3010   16.8600    1.7050 C.2       1 982         0.0586
     11 O14        43.8000   17.2620    0.6140 O.co2     1 982        -0.5682
     12 O15        46.0160   15.2980    3.8050 O.3       1 982        -0.3099
     13 C16        47.2510   16.0130    3.6410 C.3       1 982         0.1201
     14 C17        47.4750   16.9630    4.8310 C.2       1 982         0.0650
     15 O20        48.5250   17.6360    4.7770 O.co2     1 982        -0.5663
     16 O21        44.4540   17.5450    2.7620 O.co2     1 982        -0.5682
     17 O22        46.6160   16.9760    5.7460 O.co2     1 982        -0.5663
     18 H1         46.9616   12.4309    3.8811 H         1 982         0.0722
     19 H2         47.0166   10.1921    2.7738 H         1 982         0.0645
     20 H3         45.8620    9.8687    0.6500 H         1 982         0.0794
     21 H4         47.2115   16.5986    2.7107 H         1 982         0.0781
     22 H5         48.0826   15.2950    3.5873 H         1 982         0.0781
@<TRIPOS>BOND
     1    1    2 ar 
     2    1    6 ar 
     3    2    3 ar 
     4    3    4 ar 
     5    4    5 ar 
     6    5    6 ar 
     7    5    7 1  
     8    6    9 1  
     9    7    8 1  
    10    8    9 2  
    11    8   10 1  
    12    9   12 1  
    13   10   11 ar 
    14   10   16 ar 
    15   12   13 1  
    16   13   14 1  
    17   14   15 ar 
    18   14   17 ar 
    19    1   18 1  
    20    2   19 1  
    21    3   20 1  
    22   13   21 1  
    23   13   22 1  
@<TRIPOS>SUBSTRUCTURE
     1 982         1

