### 
### Created by X-TOOL on Mon Sep 10 21:12:53 2018
### 

@<TRIPOS>MOLECULE
2b07_ligand
   59    63     1     0     0
SMALL
GAST_HUCK


@<TRIPOS>ATOM
      1 S1         44.3620   14.1180    0.5200 S.3       1 598        -0.0610
      2 C2         44.6830   15.3340    1.6850 C.2       1 598         0.0720
      3 C3         45.5910   14.9690    2.6490 C.2       1 598         0.1067
      4 C4         46.0140   13.6290    2.4370 C.2       1 598         0.0614
      5 C5         45.4390   13.0490    1.3430 C.2       1 598         0.0346
      6 C6         43.9670   16.7160    1.5230 C.2       1 598         0.0513
      7 O7         44.0370   17.5620    2.4670 O.co2     1 598        -0.5712
      8 O8         43.3800   16.8410    0.4120 O.co2     1 598        -0.5712
      9 O9         46.0220   15.7410    3.6790 O.3       1 598        -0.3148
     10 C10        47.2680   16.4150    3.4510 C.3       1 598         0.1188
     11 C11        47.5720   17.1990    4.7270 C.2       1 598         0.0647
     12 O14        46.6960   17.1600    5.6320 O.co2     1 598        -0.5663
     13 O15        48.6730   17.7860    4.7440 O.co2     1 598        -0.5663
     14 S18        47.1170   12.5550    3.2310 S.3       1 598        -0.0552
     15 C19        46.7620   11.3250    2.0640 C.ar      1 598         0.0237
     16 C20        45.8400   11.7110    1.0930 C.ar      1 598        -0.0129
     17 C21        47.3100   10.0270    2.0140 C.ar      1 598        -0.0323
     18 C22        46.9340    9.1100    1.0050 C.ar      1 598         0.0319
     19 C23        46.0130    9.5230    0.0360 C.ar      1 598        -0.0502
     20 C24        45.4590   10.8140    0.0650 C.ar      1 598        -0.0714
     21 N28        47.5160    7.8510    1.0300 N.pl3     1 598        -0.3214
     22 C29        48.5720    7.4510    1.9440 C.3       1 598         0.0380
     23 C30        47.9410    6.9520    3.2650 C.3       1 598        -0.0134
     24 C31        49.0190    6.4840    4.2370 C.3       1 598         0.0315
     25 N32        49.8400    5.4300    3.5400 N.am      1 598        -0.2365
     26 C33        50.5370    5.9320    2.2970 C.3       1 598         0.0315
     27 C34        49.4680    6.3810    1.3030 C.3       1 598        -0.0134
     28 S44        50.6720    4.2940    4.5480 S.o2      1 598         0.0512
     29 C45        49.6580    2.8300    4.3100 C.3       1 598         0.1181
     30 C46        49.3150    2.6740    2.8490 C.ar      1 598        -0.0204
     31 C49        48.0250    2.9940    2.3820 C.ar      1 598        -0.0587
     32 C50        47.6950    2.8550    1.0240 C.ar      1 598        -0.0685
     33 C51        48.6570    2.3980    0.1190 C.ar      1 598        -0.0687
     34 C52        49.9480    2.0760    0.5670 C.ar      1 598        -0.0685
     35 C53        50.2760    2.2120    1.9250 C.ar      1 598        -0.0587
     36 O59        50.5680    4.7260    5.9280 O.2       1 598        -0.1532
     37 O60        51.9810    4.0690    3.9540 O.2       1 598        -0.1532
     38 H1         47.1792   17.1003    2.5952 H         1 598         0.0779
     39 H2         48.0660   15.6839    3.2541 H         1 598         0.0779
     40 H3         48.0333    9.7261    2.7632 H         1 598         0.0457
     41 H4         45.7220    8.8356   -0.7501 H         1 598         0.0478
     42 H5         44.7466   11.1207   -0.6923 H         1 598         0.0560
     43 H6         47.1761    7.1519    0.3542 H         1 598         0.1759
     44 H7         49.1948    8.3299    2.1669 H         1 598         0.0549
     45 H8         47.2634    6.1134    3.0469 H         1 598         0.0303
     46 H9         47.3719    7.7730    3.7256 H         1 598         0.0303
     47 H10        48.5520    6.0596    5.1380 H         1 598         0.0479
     48 H11        49.6606    7.3312    4.5209 H         1 598         0.0479
     49 H12        51.1407    5.1250    1.8562 H         1 598         0.0479
     50 H13        51.1891    6.7804    2.5519 H         1 598         0.0479
     51 H14        49.9541    6.8002    0.4097 H         1 598         0.0303
     52 H15        48.8529    5.5161    1.0140 H         1 598         0.0303
     53 H16        48.7309    2.9298    4.8935 H         1 598         0.0682
     54 H17        50.2123    1.9432    4.6511 H         1 598         0.0682
     55 H18        47.2771    3.3523    3.0801 H         1 598         0.0557
     56 H19        46.6974    3.1014    0.6789 H         1 598         0.0599
     57 H20        48.4060    2.2920   -0.9302 H         1 598         0.0559
     58 H21        50.6925    1.7219   -0.1368 H         1 598         0.0599
     59 H22        51.2738    1.9605    2.2660 H         1 598         0.0557
@<TRIPOS>BOND
     1    1    2 1  
     2    1    5 1  
     3    2    3 2  
     4    2    6 1  
     5    3    4 1  
     6    3    9 1  
     7    4    5 2  
     8    4   14 1  
     9    5   16 1  
    10    6    7 ar 
    11    6    8 ar 
    12    9   10 1  
    13   10   11 1  
    14   11   12 ar 
    15   11   13 ar 
    16   14   15 1  
    17   15   16 ar 
    18   15   17 ar 
    19   16   20 ar 
    20   17   18 ar 
    21   18   19 ar 
    22   18   21 1  
    23   19   20 ar 
    24   21   22 1  
    25   22   23 1  
    26   22   27 1  
    27   23   24 1  
    28   24   25 1  
    29   25   26 1  
    30   25   28 am 
    31   26   27 1  
    32   28   29 1  
    33   28   36 2  
    34   28   37 2  
    35   29   30 1  
    36   30   31 ar 
    37   30   35 ar 
    38   31   32 ar 
    39   32   33 ar 
    40   33   34 ar 
    41   34   35 ar 
    42   10   38 1  
    43   10   39 1  
    44   17   40 1  
    45   19   41 1  
    46   20   42 1  
    47   21   43 1  
    48   22   44 1  
    49   23   45 1  
    50   23   46 1  
    51   24   47 1  
    52   24   48 1  
    53   26   49 1  
    54   26   50 1  
    55   27   51 1  
    56   27   52 1  
    57   29   53 1  
    58   29   54 1  
    59   31   55 1  
    60   32   56 1  
    61   33   57 1  
    62   34   58 1  
    63   35   59 1  
@<TRIPOS>SUBSTRUCTURE
     1 598         1

