### 
### Created by X-TOOL on Mon Sep 10 21:12:52 2018
### 

@<TRIPOS>MOLECULE
2b17_ligand
   29    30     1     0     0
SMALL
GAST_HUCK


@<TRIPOS>ATOM
      1 C1         46.0450   30.9760    8.1150 C.ar      1 DIF        -0.0583
      2 C2         47.2610   31.5090    7.6630 C.ar      1 DIF         0.0613
      3 CL2        48.4390   31.4850    8.9130 Cl        1 DIF        -0.0803
      4 C3         47.6170   32.0470    6.2880 C.ar      1 DIF         0.0851
      5 C4         46.4100   31.9200    5.4760 C.ar      1 DIF         0.0613
      6 CL4        46.7450   32.5270    3.8490 Cl        1 DIF        -0.0803
      7 C5         45.2040   31.3760    5.9730 C.ar      1 DIF        -0.0583
      8 C6         44.9990   30.9120    7.2720 C.ar      1 DIF        -0.0732
      9 N1         48.7070   32.6310    5.5770 N.pl3     1 DIF        -0.2767
     10 C7         50.7180   34.1630    5.1120 C.ar      1 DIF        -0.0070
     11 C8         49.6120   33.6010    5.9490 C.ar      1 DIF         0.0628
     12 C9         49.5030   34.1340    7.2060 C.ar      1 DIF        -0.0457
     13 C10        50.4010   35.1210    7.6220 C.ar      1 DIF        -0.0790
     14 C11        51.4420   35.6340    6.8260 C.ar      1 DIF        -0.0805
     15 C12        51.5960   35.1450    5.5640 C.ar      1 DIF        -0.0686
     16 C13        50.9140   33.8470    3.7240 C.3       1 DIF         0.0310
     17 C14        52.0730   33.7410    2.8890 C.2       1 DIF         0.0444
     18 O1         52.7050   34.8160    2.7790 O.co2     1 DIF        -0.5667
     19 O2         52.2530   32.5980    2.4000 O.co2     1 DIF        -0.5667
     20 H1         45.9491   30.6190    9.1340 H         1 DIF         0.0592
     21 H2         44.3675   31.3142    5.2863 H         1 DIF         0.0592
     22 H3         44.0400   30.5176    7.5880 H         1 DIF         0.0513
     23 H4         48.8402   32.2654    4.6233 H         1 DIF         0.2070
     24 H5         48.7228   33.7915    7.8761 H         1 DIF         0.0509
     25 H6         50.2881   35.5177    8.6245 H         1 DIF         0.0530
     26 H7         52.1061   36.4007    7.2084 H         1 DIF         0.0496
     27 H8         52.3883   35.5138    4.9226 H         1 DIF         0.0525
     28 H9         50.3013   34.6002    3.2070 H         1 DIF         0.0565
     29 H10        50.4420   32.8585    3.6234 H         1 DIF         0.0565
@<TRIPOS>BOND
     1    1    2 ar 
     2    1    8 ar 
     3    2    3 1  
     4    2    4 ar 
     5    4    5 ar 
     6    4    9 1  
     7    5    6 1  
     8    5    7 ar 
     9    7    8 ar 
    10    9   11 1  
    11   11   10 ar 
    12   10   15 ar 
    13   10   16 1  
    14   11   12 ar 
    15   12   13 ar 
    16   13   14 ar 
    17   14   15 ar 
    18   16   17 1  
    19   17   18 ar 
    20   17   19 ar 
    21    1   20 1  
    22    7   21 1  
    23    8   22 1  
    24    9   23 1  
    25   12   24 1  
    26   13   25 1  
    27   14   26 1  
    28   15   27 1  
    29   16   28 1  
    30   16   29 1  
@<TRIPOS>SUBSTRUCTURE
     1 DIF         1

