### 
### Created by X-TOOL on Mon Sep 10 21:12:54 2018
### 

@<TRIPOS>MOLECULE
2b1p_ligand
   61    64     1     0     0
SMALL
GAST_HUCK


@<TRIPOS>ATOM
      1 C1         45.7220    6.4840   32.0660 C.2       1 AIZ         0.0545
      2 C2         45.6460    7.9320   32.2730 C.ar      1 AIZ         0.0079
      3 C3         46.8300    5.6890   31.4860 C.ar      1 AIZ        -0.0209
      4 N4         44.6280    5.9480   32.5600 N.2       1 AIZ        -0.2047
      5 C5         44.3930    8.1450   32.8870 C.ar      1 AIZ         0.0787
      6 C6         46.4620    9.0510   31.9890 C.ar      1 AIZ        -0.0690
      7 C7         46.9660    4.3850   31.9290 C.ar      1 AIZ        -0.0325
      8 C8         47.7210    6.2260   30.5690 C.ar      1 AIZ        -0.0557
      9 N9         43.7890    6.9330   33.0530 N.pl3     1 AIZ        -0.2179
     10 C10        44.0000    9.4390   33.2040 C.ar      1 AIZ        -0.0150
     11 C11        46.0470   10.3240   32.3210 C.ar      1 AIZ        -0.0465
     12 C12        47.9790    3.5700   31.4590 C.ar      1 AIZ         0.0688
     13 C13        48.7570    5.4230   30.0860 C.ar      1 AIZ        -0.0033
     14 C14        44.7990   10.5270   32.9300 C.ar      1 AIZ         0.0506
     15 C15        48.8740    4.0930   30.5230 C.ar      1 AIZ        -0.0279
     16 N16        47.9960    2.2470   31.9700 N.am      1 AIZ        -0.2338
     17 C17        49.6970    6.0200   29.1120 C.2       1 AIZ         0.0594
     18 N18        44.3980   11.8100   33.2990 N.pl3     1 AIZ        -0.2765
     19 C19        49.0820    1.4400   32.1310 C.2       1 AIZ         0.2036
     20 O20        49.4940    7.1480   28.7070 O.co2     1 AIZ        -0.5608
     21 C21        43.6260   12.0370   34.4410 C.ar      1 AIZ         0.0722
     22 C22        48.8880    0.0440   32.7070 C.3       1 AIZ         0.0479
     23 O23        50.1890    1.8470   31.8120 O.2       1 AIZ        -0.3850
     24 C24        42.7140   13.0760   34.3970 C.ar      1 AIZ         0.0610
     25 C25        43.7280   11.2290   35.5920 C.ar      1 AIZ        -0.0392
     26 C26        49.9380   -0.9740   32.2210 C.3       1 AIZ         0.0048
     27 C27        41.8940   13.3420   35.4870 C.ar      1 AIZ        -0.0583
     28 CL28       42.6150   14.0580   32.9770 Cl        1 AIZ        -0.0801
     29 C29        42.9070   11.4940   36.6730 C.ar      1 AIZ        -0.0721
     30 C30        50.0290   -2.1980   33.1690 C.3       1 AIZ        -0.0303
     31 C31        41.9760   12.5380   36.6210 C.ar      1 AIZ        -0.0735
     32 N32        51.2860   -2.9830   33.0080 N.4       1 AIZ         0.2310
     33 C33        51.7120   -3.4410   34.3450 C.3       1 AIZ        -0.0433
     34 C34        50.9810   -4.2090   32.2370 C.3       1 AIZ        -0.0433
     35 O35        50.7790    5.3300   28.6630 O.co2     1 AIZ        -0.5608
     36 H1         47.4219    8.9075   31.5063 H         1 AIZ         0.0577
     37 H2         46.2650    3.9953   32.6583 H         1 AIZ         0.0513
     38 H3         47.6154    7.2511   30.2328 H         1 AIZ         0.0523
     39 H4         42.8625    6.7766   33.4751 H         1 AIZ         0.2447
     40 H5         43.0388    9.5968   33.6797 H         1 AIZ         0.0443
     41 H6         46.6883   11.1722   32.1103 H         1 AIZ         0.0479
     42 H7         49.6666    3.4666   30.1299 H         1 AIZ         0.0530
     43 H8         47.1132    1.8641   32.2423 H         1 AIZ         0.2254
     44 H9         44.6779   12.6109   32.7149 H         1 AIZ         0.2085
     45 H10        47.8912   -0.3177   32.4145 H         1 AIZ         0.0509
     46 H11        48.9475    0.1086   33.8035 H         1 AIZ         0.0509
     47 H12        44.4395   10.4120   35.6291 H         1 AIZ         0.0529
     48 H13        50.9205   -0.4811   32.1794 H         1 AIZ         0.0341
     49 H14        49.6593   -1.3216   31.2153 H         1 AIZ         0.0341
     50 H15        41.1951   14.1700   35.4547 H         1 AIZ         0.0591
     51 H16        42.9852   10.8879   37.5683 H         1 AIZ         0.0587
     52 H17        49.1757   -2.8613   32.9641 H         1 AIZ         0.0816
     53 H18        49.9734   -1.8391   34.2073 H         1 AIZ         0.0816
     54 H19        41.3188   12.7206   37.4635 H         1 AIZ         0.0514
     55 H20        52.0014   -2.4331   32.5588 H         1 AIZ         0.2028
     56 H21        52.6401   -4.0245   34.2542 H         1 AIZ         0.0777
     57 H22        50.9247   -4.0707   34.7850 H         1 AIZ         0.0777
     58 H23        51.8888   -2.5693   34.9921 H         1 AIZ         0.0777
     59 H24        50.6552   -3.9330   31.2233 H         1 AIZ         0.0777
     60 H25        50.1788   -4.7686   32.7403 H         1 AIZ         0.0777
     61 H26        51.8823   -4.8365   32.1743 H         1 AIZ         0.0777
@<TRIPOS>BOND
     1    1    2 1  
     2    1    3 1  
     3    1    4 2  
     4    2    5 ar 
     5    2    6 ar 
     6    3    7 ar 
     7    3    8 ar 
     8    4    9 1  
     9    5    9 1  
    10    5   10 ar 
    11    6   11 ar 
    12    7   12 ar 
    13    8   13 ar 
    14   10   14 ar 
    15   11   14 ar 
    16   12   15 ar 
    17   12   16 1  
    18   13   15 ar 
    19   13   17 1  
    20   14   18 1  
    21   16   19 am 
    22   17   20 ar 
    23   17   35 ar 
    24   18   21 1  
    25   19   22 1  
    26   19   23 2  
    27   21   24 ar 
    28   21   25 ar 
    29   22   26 1  
    30   24   27 ar 
    31   24   28 1  
    32   25   29 ar 
    33   26   30 1  
    34   27   31 ar 
    35   29   31 ar 
    36   30   32 1  
    37   32   33 1  
    38   32   34 1  
    39    6   36 1  
    40    7   37 1  
    41    8   38 1  
    42    9   39 1  
    43   10   40 1  
    44   11   41 1  
    45   15   42 1  
    46   16   43 1  
    47   18   44 1  
    48   22   45 1  
    49   22   46 1  
    50   25   47 1  
    51   26   48 1  
    52   26   49 1  
    53   27   50 1  
    54   29   51 1  
    55   30   52 1  
    56   30   53 1  
    57   31   54 1  
    58   32   55 1  
    59   33   56 1  
    60   33   57 1  
    61   33   58 1  
    62   34   59 1  
    63   34   60 1  
    64   34   61 1  
@<TRIPOS>SUBSTRUCTURE
     1 AIZ         1

