### 
### Created by X-TOOL on Sun Sep  9 21:50:22 2018
### 

@<TRIPOS>MOLECULE
2b1q_ligand
   45    46     1     0     0
SMALL
GAST_HUCK


@<TRIPOS>ATOM
      1 C1         45.7210    1.4390   95.4410 C.3       1 NON         0.1909
      2 C2         44.8050    1.7230   94.2200 C.3       1 NON         0.1342
      3 C3         45.1410    0.6560   93.1350 C.3       1 NON         0.1141
      4 C4         46.6210    0.8970   92.7430 C.3       1 NON         0.1119
      5 C5         47.5470    0.6710   93.9890 C.3       1 NON         0.1130
      6 C6         49.0150    0.9020   93.7600 C.3       1 NON         0.0730
      7 O1         45.3590    0.1600   95.8730 O.3       1 NON        -0.3174
      8 O2         43.4830    1.5880   94.6420 O.3       1 NON        -0.3841
      9 O3         44.3320    0.8730   92.0230 O.3       1 NON        -0.3864
     10 O4         47.0540   -0.0010   91.7860 O.3       1 NON        -0.3865
     11 O5         47.1670    1.5390   95.0760 O.3       1 NON        -0.3404
     12 O6         49.1670    2.1530   93.0900 O.3       1 NON        -0.3924
     13 C1P        45.9820   -0.4870   96.9840 C.3       1 NON         0.1909
     14 C2P        45.9320   -1.8380   97.7020 C.3       1 NON         0.1342
     15 C3P        44.4770   -1.9430   98.3430 C.3       1 NON         0.1141
     16 C4P        44.4250   -0.8410   99.4200 C.3       1 NON         0.1119
     17 C5P        44.5890    0.5730   98.7230 C.3       1 NON         0.1130
     18 C6P        44.5850    1.6960   99.7440 C.3       1 NON         0.0730
     19 O2P        46.0470   -2.7960   96.7240 O.3       1 NON        -0.3841
     20 O3P        44.3390   -3.1600   98.9980 O.3       1 NON        -0.3864
     21 O4P        43.1740   -0.8420  100.0820 O.3       1 NON        -0.3865
     22 O5P        45.8560    0.5680   98.0210 O.3       1 NON        -0.3404
     23 O6P        45.7530    1.5770  100.5310 O.3       1 NON        -0.3924
     24 H1         45.5158    2.1684   96.2384 H         1 NON         0.0938
     25 H2         44.9775    2.7358   93.8269 H         1 NON         0.0671
     26 H3         44.9959   -0.3630   93.5231 H         1 NON         0.0648
     27 H4         46.7305    1.9252   92.3678 H         1 NON         0.0647
     28 H5         47.4138   -0.3744   94.3043 H         1 NON         0.0647
     29 H6         49.4273    0.0935   93.1384 H         1 NON         0.0584
     30 H7         49.5433    0.9289   94.7245 H         1 NON         0.0584
     31 H8         42.9013    1.7066   93.9003 H         1 NON         0.2101
     32 H9         44.5807    0.2728   91.3299 H         1 NON         0.2100
     33 H10        47.9639    0.1750   91.5768 H         1 NON         0.2100
     34 H11        48.7060    2.1244   92.2598 H         1 NON         0.2095
     35 H12        47.0310   -0.4947   96.6530 H         1 NON         0.0938
     36 H13        46.7209   -1.9350   98.4624 H         1 NON         0.0671
     37 H14        43.6930   -1.8123   97.5826 H         1 NON         0.0648
     38 H15        45.2332   -1.0014  100.1487 H         1 NON         0.0647
     39 H16        43.7658    0.7296   98.0104 H         1 NON         0.0647
     40 H17        43.6941    1.6150  100.3841 H         1 NON         0.0584
     41 H18        44.5796    2.6681   99.2293 H         1 NON         0.0584
     42 H19        46.9111   -2.7450   96.3324 H         1 NON         0.2101
     43 H20        43.5077   -3.1786   99.4575 H         1 NON         0.2100
     44 H21        43.0450   -1.6794  100.5116 H         1 NON         0.2100
     45 H22        46.5183    1.6444   99.9722 H         1 NON         0.2095
@<TRIPOS>BOND
     1    1    2 1  
     2    1    7 1  
     3    1   11 1  
     4    2    3 1  
     5    2    8 1  
     6    3    4 1  
     7    3    9 1  
     8    4    5 1  
     9    4   10 1  
    10    5    6 1  
    11    5   11 1  
    12    6   12 1  
    13    7   13 1  
    14   13   14 1  
    15   13   22 1  
    16   14   15 1  
    17   14   19 1  
    18   15   16 1  
    19   15   20 1  
    20   16   17 1  
    21   16   21 1  
    22   17   18 1  
    23   17   22 1  
    24   18   23 1  
    25    1   24 1  
    26    2   25 1  
    27    3   26 1  
    28    4   27 1  
    29    5   28 1  
    30    6   29 1  
    31    6   30 1  
    32    8   31 1  
    33    9   32 1  
    34   10   33 1  
    35   12   34 1  
    36   13   35 1  
    37   14   36 1  
    38   15   37 1  
    39   16   38 1  
    40   17   39 1  
    41   18   40 1  
    42   18   41 1  
    43   19   42 1  
    44   20   43 1  
    45   21   44 1  
    46   23   45 1  
@<TRIPOS>SUBSTRUCTURE
     1 NON         1

