### 
### Created by X-TOOL on Sun Sep  9 21:50:22 2018
### 

@<TRIPOS>MOLECULE
2b1r_ligand
   45    46     1     0     0
SMALL
GAST_HUCK


@<TRIPOS>ATOM
      1 C1         45.7290    1.5490   95.4550 C.3       1 NON         0.1884
      2 C2         44.8060    1.8090   94.2280 C.3       1 NON         0.1341
      3 C3         45.1740    0.7740   93.1490 C.3       1 NON         0.1141
      4 C4         46.6390    0.9740   92.7770 C.3       1 NON         0.1119
      5 C5         47.5290    0.7800   94.0210 C.3       1 NON         0.1130
      6 C6         49.0070    1.0060   93.7360 C.3       1 NON         0.0730
      7 O2         43.4360    1.6480   94.6050 O.3       1 NON        -0.3841
      8 O3         44.3470    0.9780   92.0030 O.3       1 NON        -0.3864
      9 O4         47.0230    0.0310   91.7920 O.3       1 NON        -0.3865
     10 O5         47.1380    1.6990   95.0830 O.3       1 NON        -0.3405
     11 O6         49.2380    2.2590   93.0900 O.3       1 NON        -0.3924
     12 C1'        44.5260    0.6180  100.3880 C.3       1 NON         0.1854
     13 C2'        43.3780    1.0620   99.4300 C.3       1 NON         0.1339
     14 C3'        43.7270    0.8800   97.9360 C.3       1 NON         0.1144
     15 C4'        45.0850    1.5050   97.5720 C.3       1 NON         0.1184
     16 C5'        46.1610    0.8650   98.5160 C.3       1 NON         0.1134
     17 C6'        47.5980    1.3360   98.3330 C.3       1 NON         0.0730
     18 O1'        44.5830   -0.7450  100.3340 O.3       1 NON        -0.3649
     19 O2'        42.2120    0.2960   99.7070 O.3       1 NON        -0.3841
     20 O3'        42.7170    1.4600   97.1180 O.3       1 NON        -0.3864
     21 O4'        45.4480    2.4450   96.4980 O.3       1 NON        -0.3401
     22 O5'        45.8190    1.0960   99.9270 O.3       1 NON        -0.3407
     23 O6'        47.7470    2.7370   98.5750 O.3       1 NON        -0.3924
     24 H1         45.5582    0.5219   95.8098 H         1 NON         0.0938
     25 H2         44.9656    2.8277   93.8448 H         1 NON         0.0671
     26 H3         45.0232   -0.2441   93.5372 H         1 NON         0.0648
     27 H4         46.7765    1.9917   92.3829 H         1 NON         0.0647
     28 H5         47.3955   -0.2529   94.3748 H         1 NON         0.0647
     29 H6         49.3717    0.1976   93.0853 H         1 NON         0.0584
     30 H7         49.5596    0.9887   94.6870 H         1 NON         0.0584
     31 H8         42.8821    1.7760   93.8438 H         1 NON         0.2101
     32 H9         44.5861    0.3554   91.3264 H         1 NON         0.2100
     33 H10        47.9344    0.1684   91.5619 H         1 NON         0.2100
     34 H11        48.7682    2.2798   92.2646 H         1 NON         0.2095
     35 H12        44.3280    0.9712  101.4108 H         1 NON         0.0935
     36 H13        43.1670    2.1259   99.6131 H         1 NON         0.0671
     37 H14        43.7753   -0.1987   97.7261 H         1 NON         0.0648
     38 H15        44.9089    2.3626   98.2379 H         1 NON         0.0651
     39 H16        46.1433   -0.2179   98.3238 H         1 NON         0.0647
     40 H17        47.9118    1.1204   97.3010 H         1 NON         0.0584
     41 H18        48.2422    0.7858   99.0346 H         1 NON         0.0584
     42 H19        43.7554   -1.1073  100.6277 H         1 NON         0.2126
     43 H20        42.3838   -0.6193   99.5193 H         1 NON         0.2101
     44 H21        42.9144    1.2898   96.2044 H         1 NON         0.2100
     45 H22        48.6556    2.9840   98.4495 H         1 NON         0.2095
@<TRIPOS>BOND
     1    1    2 1  
     2    1   10 1  
     3   21    1 1  
     4    2    3 1  
     5    2    7 1  
     6    3    4 1  
     7    3    8 1  
     8    5    4 1  
     9    4    9 1  
    10    5    6 1  
    11   10    5 1  
    12    6   11 1  
    13   13   12 1  
    14   12   18 1  
    15   12   22 1  
    16   14   13 1  
    17   13   19 1  
    18   15   14 1  
    19   14   20 1  
    20   15   16 1  
    21   15   21 1  
    22   16   17 1  
    23   16   22 1  
    24   17   23 1  
    25    1   24 1  
    26    2   25 1  
    27    3   26 1  
    28    4   27 1  
    29    5   28 1  
    30    6   29 1  
    31    6   30 1  
    32    7   31 1  
    33    8   32 1  
    34    9   33 1  
    35   11   34 1  
    36   12   35 1  
    37   13   36 1  
    38   14   37 1  
    39   15   38 1  
    40   16   39 1  
    41   17   40 1  
    42   17   41 1  
    43   18   42 1  
    44   19   43 1  
    45   20   44 1  
    46   23   45 1  
@<TRIPOS>SUBSTRUCTURE
     1 NON         1

