### 
### Created by X-TOOL on Mon Sep 10 21:12:54 2018
### 

@<TRIPOS>MOLECULE
2b1v_ligand
   39    41     1     0     0
SMALL
GAST_HUCK


@<TRIPOS>ATOM
      1 CAK         2.1150    4.0230   -4.2710 C.3       1 458        -0.0268
      2 CAJ         3.5080    3.6610   -4.8110 C.3       1 458         0.0187
      3 CAO         3.2480    2.6880   -5.9270 C.2       1 458        -0.0768
      4 CAR         4.0960    1.4270   -6.1080 C.3       1 458        -0.0399
      5 CAQ         2.2020    3.0030   -6.7840 C.2       1 458        -0.1078
      6 CAP         1.3760    4.1240   -6.6950 C.3       1 458        -0.0371
      7 CAL         1.4580    4.8860   -5.3520 C.3       1 458         0.0227
      8 CAT         0.0490    5.3320   -4.9360 C.3       1 458         0.0532
      9 OAU        -0.8400    4.2120   -5.0490 O.3       1 458        -0.3943
     10 CAM         2.3300    6.1110   -5.5310 C.3       1 458         0.0595
     11 OAH         3.4740    5.6640   -6.2770 O.3       1 458        -0.3629
     12 CAI         4.2680    4.8790   -5.4150 C.3       1 458         0.0985
     13 CAD         5.5890    4.4580   -6.1500 C.ar      1 458        -0.0231
     14 CAC         5.6220    4.2760   -7.5510 C.ar      1 458        -0.0661
     15 CAB         6.8360    3.9030   -8.1690 C.ar      1 458        -0.0397
     16 CAA         7.9890    3.7430   -7.3780 C.ar      1 458         0.0805
     17 OAG         9.1530    3.3990   -7.9790 O.3       1 458        -0.3376
     18 CAF         7.9650    3.9430   -5.9810 C.ar      1 458        -0.0397
     19 CAE         6.7490    4.3020   -5.3680 C.ar      1 458        -0.0661
     20 H1          2.2037    4.5882   -3.3315 H         1 458         0.0299
     21 H2          1.5235    3.1121   -4.0965 H         1 458         0.0299
     22 H3          4.1156    3.2042   -4.0159 H         1 458         0.0491
     23 H4          3.7336    0.8636   -6.9805 H         1 458         0.0375
     24 H5          4.0171    0.7997   -5.2079 H         1 458         0.0375
     25 H6          5.1468    1.7113   -6.2659 H         1 458         0.0375
     26 H7          2.0082    2.3106   -7.6019 H         1 458         0.0242
     27 H8          0.3362    3.7950   -6.8386 H         1 458         0.0346
     28 H9          1.6551    4.8194   -7.5003 H         1 458         0.0346
     29 H10        -0.2923    6.1434   -5.5956 H         1 458         0.0565
     30 H11         0.0655    5.6879   -3.8953 H         1 458         0.0565
     31 H12        -1.7157    4.4772   -4.7937 H         1 458         0.2094
     32 H13         2.6402    6.5080   -4.5532 H         1 458         0.0569
     33 H14         1.7886    6.8899   -6.0880 H         1 458         0.0569
     34 H15         4.5557    5.5195   -4.5683 H         1 458         0.0763
     35 H16         4.7264    4.4209   -8.1442 H         1 458         0.0531
     36 H17         6.8792    3.7418   -9.2401 H         1 458         0.0525
     37 H18         9.0463    2.5636   -8.4187 H         1 458         0.2458
     38 H19         8.8661    3.8225   -5.3907 H         1 458         0.0525
     39 H20         6.7064    4.4579   -4.2961 H         1 458         0.0531
@<TRIPOS>BOND
     1    1    2 1  
     2    1    7 1  
     3    2    3 1  
     4    2   12 1  
     5    3    4 1  
     6    3    5 2  
     7    5    6 1  
     8    6    7 1  
     9    7    8 1  
    10    7   10 1  
    11    8    9 1  
    12   10   11 1  
    13   11   12 1  
    14   12   13 1  
    15   13   14 ar 
    16   13   19 ar 
    17   14   15 ar 
    18   15   16 ar 
    19   16   17 1  
    20   16   18 ar 
    21   18   19 ar 
    22    1   20 1  
    23    1   21 1  
    24    2   22 1  
    25    4   23 1  
    26    4   24 1  
    27    4   25 1  
    28    5   26 1  
    29    6   27 1  
    30    6   28 1  
    31    8   29 1  
    32    8   30 1  
    33    9   31 1  
    34   10   32 1  
    35   10   33 1  
    36   12   34 1  
    37   14   35 1  
    38   15   36 1  
    39   17   37 1  
    40   18   38 1  
    41   19   39 1  
@<TRIPOS>SUBSTRUCTURE
     1 458         1

