### 
### Created by X-TOOL on Mon Sep 10 21:12:54 2018
### 

@<TRIPOS>MOLECULE
2b1z_ligand
   43    46     1     0     0
SMALL
GAST_HUCK


@<TRIPOS>ATOM
      1 CAR         2.0560    2.2620   -5.4180 C.3       1 17M        -0.0550
      2 CAB         1.9420    3.7380   -5.8200 C.3       1 17M         0.0087
      3 CAP         2.1170    3.9360   -7.3300 C.3       1 17M        -0.0342
      4 CAJ         3.5500    3.5740   -7.8020 C.3       1 17M        -0.0209
      5 CAF         4.6750    3.9070   -6.7960 C.ar      1 17M        -0.0363
      6 CAG         6.0170    3.7490   -7.1750 C.ar      1 17M        -0.0264
      7 CAK         6.3010    3.2900   -8.4550 C.ar      1 17M        -0.0607
      8 CAN         7.6190    3.1200   -8.8720 C.ar      1 17M        -0.0316
      9 CAO         8.6670    3.4030   -8.0040 C.ar      1 17M         0.0847
     10 OAT         9.9510    3.2350   -8.4210 O.3       1 17M        -0.3342
     11 CAL         8.3900    3.8640   -6.7130 C.ar      1 17M        -0.0349
     12 CAH         7.0660    4.0380   -6.3040 C.ar      1 17M        -0.0392
     13 CAM         6.7790    4.4960   -5.0250 C.ar      1 17M        -0.0716
     14 CAI         5.4530    4.6610   -4.6280 C.ar      1 17M        -0.0695
     15 CAE         4.4140    4.3510   -5.5000 C.ar      1 17M        -0.0410
     16 CAD         2.9430    4.5980   -5.0880 C.3       1 17M        -0.0043
     17 CAQ         2.5580    4.4350   -3.6200 C.3       1 17M        -0.0391
     18 CAC         1.0090    4.5140   -3.7260 C.3       1 17M        -0.0218
     19 CAA         0.6680    4.3840   -5.2360 C.3       1 17M         0.0707
     20 CAS        -0.5630    3.5350   -5.4630 C.3       1 17M        -0.0354
     21 OAU         0.4330    5.6830   -5.7920 O.3       1 17M        -0.3881
     22 H1          2.9727    1.8341   -5.8500 H         1 17M         0.0237
     23 H2          1.1815    1.7109   -5.7942 H         1 17M         0.0237
     24 H3          2.0957    2.1826   -4.3216 H         1 17M         0.0237
     25 H4          1.9180    4.9896   -7.5754 H         1 17M         0.0294
     26 H5          1.3965    3.2941   -7.8581 H         1 17M         0.0294
     27 H6          3.7514    4.1243   -8.7329 H         1 17M         0.0417
     28 H7          3.5802    2.4926   -8.0014 H         1 17M         0.0417
     29 H8          5.4889    3.0619   -9.1359 H         1 17M         0.0603
     30 H9          7.8278    2.7664   -9.8752 H         1 17M         0.0566
     31 H10        10.0878    2.3267   -8.6632 H         1 17M         0.2479
     32 H11         9.2023    4.0861   -6.0304 H         1 17M         0.0478
     33 H12         7.5845    4.7248   -4.3366 H         1 17M         0.0507
     34 H13         5.2301    5.0329   -3.6345 H         1 17M         0.0551
     35 H14         2.7456    5.6464   -5.3559 H         1 17M         0.0441
     36 H15         2.9650    5.2475   -3.0003 H         1 17M         0.0288
     37 H16         2.8891    3.4661   -3.2180 H         1 17M         0.0288
     38 H17         0.6492    5.4775   -3.3359 H         1 17M         0.0294
     39 H18         0.5461    3.6929   -3.1590 H         1 17M         0.0294
     40 H19        -0.7688    3.4687   -6.5415 H         1 17M         0.0257
     41 H20        -1.4234    3.9929   -4.9530 H         1 17M         0.0257
     42 H21        -0.3921    2.5260   -5.0596 H         1 17M         0.0257
     43 H22         0.2250    5.5982   -6.7151 H         1 17M         0.2102
@<TRIPOS>BOND
     1    1    2 1  
     2    2    3 1  
     3    2   16 1  
     4    2   19 1  
     5    3    4 1  
     6    4    5 1  
     7    5    6 ar 
     8    5   15 ar 
     9    6    7 ar 
    10    6   12 ar 
    11    7    8 ar 
    12    8    9 ar 
    13    9   10 1  
    14    9   11 ar 
    15   11   12 ar 
    16   12   13 ar 
    17   13   14 ar 
    18   14   15 ar 
    19   15   16 1  
    20   16   17 1  
    21   17   18 1  
    22   18   19 1  
    23   19   20 1  
    24   19   21 1  
    25    1   22 1  
    26    1   23 1  
    27    1   24 1  
    28    3   25 1  
    29    3   26 1  
    30    4   27 1  
    31    4   28 1  
    32    7   29 1  
    33    8   30 1  
    34   10   31 1  
    35   11   32 1  
    36   13   33 1  
    37   14   34 1  
    38   16   35 1  
    39   17   36 1  
    40   17   37 1  
    41   18   38 1  
    42   18   39 1  
    43   20   40 1  
    44   20   41 1  
    45   20   42 1  
    46   21   43 1  
@<TRIPOS>SUBSTRUCTURE
     1 17M         1

