### 
### Created by X-TOOL on Mon Sep 10 21:12:54 2018
### 

@<TRIPOS>MOLECULE
2b4l_ligand
   19    18     1     0     0
SMALL
GAST_HUCK


@<TRIPOS>ATOM
      1 N          10.2210   10.6700   16.6320 N.4       1 BET         0.2484
      2 CA         10.2590   10.0020   17.9510 C.3       1 BET         0.0222
      3 C          10.7700    8.5840   17.9790 C.2       1 BET         0.0813
      4 O1         10.9560    8.0820   19.1070 O.co2     1 BET        -0.5645
      5 O2         10.9730    7.9470   16.9210 O.co2     1 BET        -0.5645
      6 C1         11.5510   10.6550   15.9670 C.3       1 BET        -0.0405
      7 C2          9.1800   10.0520   15.7810 C.3       1 BET        -0.0405
      8 C3          9.8730   12.0910   16.8830 C.3       1 BET        -0.0405
      9 H1          9.2340    9.9945   18.3502 H         1 BET         0.0989
     10 H2         10.9046   10.6016   18.6095 H         1 BET         0.0989
     11 H3         11.4793   11.1600   14.9924 H         1 BET         0.0778
     12 H4         11.8747    9.6143   15.8178 H         1 BET         0.0778
     13 H5         12.2828   11.1797   16.5988 H         1 BET         0.0778
     14 H6          8.2132   10.0814   16.3048 H         1 BET         0.0778
     15 H7          9.4512    9.0070   15.5705 H         1 BET         0.0778
     16 H8          9.1017   10.6082   14.8352 H         1 BET         0.0778
     17 H9         10.6461   12.5516   17.5156 H         1 BET         0.0778
     18 H10         8.9006   12.1456   17.3942 H         1 BET         0.0778
     19 H11         9.8145   12.6289   15.9253 H         1 BET         0.0778
@<TRIPOS>BOND
     1    1    2 1  
     2    1    6 1  
     3    1    7 1  
     4    1    8 1  
     5    2    3 1  
     6    3    4 ar 
     7    3    5 ar 
     8    2    9 1  
     9    2   10 1  
    10    6   11 1  
    11    6   12 1  
    12    6   13 1  
    13    7   14 1  
    14    7   15 1  
    15    7   16 1  
    16    8   17 1  
    17    8   18 1  
    18    8   19 1  
@<TRIPOS>SUBSTRUCTURE
     1 BET         1

