### 
### Created by X-TOOL on Mon Sep 10 21:12:55 2018
### 

@<TRIPOS>MOLECULE
2b4m_ligand
   23    23     1     0     0
SMALL
GAST_HUCK


@<TRIPOS>ATOM
      1 N          27.3760    2.2320   11.2260 N.4       1 PBE         0.2527
      2 CD         27.0400    1.9110    9.8180 C.3       1 PBE        -0.0287
      3 CA         26.0840    2.7050   11.7840 C.3       1 PBE         0.0334
      4 CB         25.0810    1.6940   11.2330 C.3       1 PBE         0.0074
      5 CG         25.5410    1.5640    9.7800 C.3       1 PBE        -0.0057
      6 CE         27.9780    1.0350   11.8400 C.3       1 PBE        -0.0399
      7 CF         28.3500    3.3390   11.2790 C.3       1 PBE        -0.0399
      8 C          26.0200    2.8290   13.3270 C.2       1 PBE         0.0846
      9 O          27.0030    2.6260   14.0330 O.co2     1 PBE        -0.5643
     10 OXT        24.9760    3.1630   13.8860 O.co2     1 PBE        -0.5643
     11 H1         27.6352    1.0522    9.4741 H         1 PBE         0.0815
     12 H2         27.2430    2.7793    9.1739 H         1 PBE         0.0815
     13 H3         25.8638    3.7012   11.3728 H         1 PBE         0.1026
     14 H4         24.0512    2.0756   11.2952 H         1 PBE         0.0340
     15 H5         25.1484    0.7323   11.7628 H         1 PBE         0.0340
     16 H6         25.3885    0.5379    9.4143 H         1 PBE         0.0320
     17 H7         24.9951    2.2681    9.1349 H         1 PBE         0.0320
     18 H8         28.9247    0.7991   11.3320 H         1 PBE         0.0778
     19 H9         27.2869    0.1850   11.7406 H         1 PBE         0.0778
     20 H10        28.1717    1.2275   12.9055 H         1 PBE         0.0778
     21 H11        27.9091    4.2375   10.8226 H         1 PBE         0.0778
     22 H12        29.2580    3.0552   10.7268 H         1 PBE         0.0778
     23 H13        28.6090    3.5497   12.3271 H         1 PBE         0.0778
@<TRIPOS>BOND
     1    1    2 1  
     2    1    3 1  
     3    1    6 1  
     4    1    7 1  
     5    2    5 1  
     6    3    4 1  
     7    3    8 1  
     8    4    5 1  
     9    8    9 ar 
    10    8   10 ar 
    11    2   11 1  
    12    2   12 1  
    13    3   13 1  
    14    4   14 1  
    15    4   15 1  
    16    5   16 1  
    17    5   17 1  
    18    6   18 1  
    19    6   19 1  
    20    6   20 1  
    21    7   21 1  
    22    7   22 1  
    23    7   23 1  
@<TRIPOS>SUBSTRUCTURE
     1 PBE         1

