### 
### Created by X-TOOL on Mon Sep 10 21:12:53 2018
### 

@<TRIPOS>MOLECULE
2b52_ligand
   56    60     1     0     0
SMALL
GAST_HUCK


@<TRIPOS>ATOM
      1 C1         75.6190   64.7320   14.8060 C.3       1 D42         0.0099
      2 C2         76.3040   63.4150   15.1330 C.3       1 D42         0.0335
      3 N3         77.7720   63.5740   15.2490 N.4       1 D42         0.3789
      4 C4         78.3910   64.1570   14.0390 C.3       1 D42         0.0335
      5 C5         77.7060   65.4640   13.6240 C.3       1 D42         0.0099
      6 N6         76.2200   65.3620   13.6070 N.4       1 D42         0.2405
      7 C15        75.4370   66.5040   13.1310 C.3       1 D42        -0.0427
      8 N19        78.4260   62.6350   16.2350 N.am      1 D42        -0.2302
      9 C20        78.6650   61.3390   16.0070 C.2       1 D42         0.3262
     10 N21        79.4940   60.9990   15.0190 N.am      1 D42        -0.2111
     11 C22        80.0790   59.7270   14.7950 C.ar      1 D42         0.0849
     12 C23        79.8030   58.5000   15.5770 C.ar      1 D42        -0.0334
     13 C24        80.5270   57.2710   15.2030 C.ar      1 D42        -0.0677
     14 C25        81.4990   57.2740   14.0910 C.ar      1 D42        -0.0607
     15 C26        81.7490   58.5080   13.3400 C.ar      1 D42         0.0118
     16 C27        81.0380   59.7460   13.6750 C.ar      1 D42         0.0541
     17 C31        82.5440   58.8350   12.1750 C.2       1 D42         0.0990
     18 C32        82.3160   60.2160   11.8070 C.2       1 D42         0.0509
     19 C33        81.3720   60.8130   12.7420 C.2       1 D42         0.1400
     20 N34        83.4000   58.1540   11.2830 N.pl3     1 D42        -0.2171
     21 N35        83.7040   59.2640   10.2960 N.2       1 D42        -0.2216
     22 C36        83.0550   60.4840   10.5850 C.2       1 D42         0.0458
     23 C37        83.0830   61.5800    9.6250 C.2       1 D42         0.0495
     24 S38        81.6960   62.7390    9.4520 S.3       1 D42        -0.0092
     25 C39        82.5480   63.5920    8.0860 C.2       1 D42         0.0892
     26 N40        83.8100   63.0100    7.7980 N.2       1 D42        -0.3095
     27 C41        84.1070   61.9050    8.6340 C.2       1 D42        -0.0002
     28 C42        85.4030   61.1880    8.3990 C.3       1 D42        -0.0292
     29 C46        81.9750   64.7820    7.3280 C.3       1 D42         0.0076
     30 O47        78.1330   60.4710   16.7090 O.2       1 D42        -0.3863
     31 O50        80.8540   61.9310   12.7390 O.2       1 D42        -0.3670
     32 H1         75.7253   65.4146   15.6620 H         1 D42         0.0868
     33 H2         74.5517   64.5447   14.6167 H         1 D42         0.0868
     34 H3         76.0861   62.6918   14.3333 H         1 D42         0.0875
     35 H4         75.9102   63.0359   16.0876 H         1 D42         0.0875
     36 H5         77.8088   64.4017   15.8231 H         1 D42         0.2302
     37 H6         78.3095   63.4344   13.2137 H         1 D42         0.0875
     38 H7         79.4522   64.3607   14.2446 H         1 D42         0.0875
     39 H8         78.0503   65.7353   12.6151 H         1 D42         0.0868
     40 H9         77.9951   66.2524   14.3345 H         1 D42         0.0868
     41 H10        76.0664   64.6762   12.8844 H         1 D42         0.2035
     42 H11        74.3654   66.2617   13.1847 H         1 D42         0.0778
     43 H12        75.7106   66.7276   12.0893 H         1 D42         0.0778
     44 H13        75.6467   67.3807   13.7614 H         1 D42         0.0778
     45 H14        78.6997   63.0089   17.1212 H         1 D42         0.2389
     46 H15        79.7282   61.7189   14.3657 H         1 D42         0.2290
     47 H16        79.0931   58.5052   16.3962 H         1 D42         0.0536
     48 H17        80.3435   56.3539   15.7511 H         1 D42         0.0617
     49 H18        82.0274   56.3641   13.8302 H         1 D42         0.0539
     50 H19        83.7265   57.1772   11.2983 H         1 D42         0.2562
     51 H20        85.9510   61.6796    7.5817 H         1 D42         0.0384
     52 H21        85.1992   60.1419    8.1266 H         1 D42         0.0384
     53 H22        86.0095   61.2166    9.3163 H         1 D42         0.0384
     54 H23        82.6898   65.1038    6.5563 H         1 D42         0.0494
     55 H24        81.7942   65.6105    8.0286 H         1 D42         0.0494
     56 H25        81.0272   64.4913    6.8514 H         1 D42         0.0494
@<TRIPOS>BOND
     1    1    2 1  
     2    1    6 1  
     3    2    3 1  
     4    3    4 1  
     5    3    8 1  
     6    4    5 1  
     7    5    6 1  
     8    6    7 1  
     9    8    9 am 
    10    9   10 am 
    11    9   30 2  
    12   10   11 1  
    13   11   12 ar 
    14   11   16 ar 
    15   12   13 ar 
    16   13   14 ar 
    17   14   15 ar 
    18   15   16 ar 
    19   15   17 1  
    20   16   19 1  
    21   17   18 2  
    22   17   20 1  
    23   18   19 1  
    24   18   22 1  
    25   19   31 2  
    26   20   21 1  
    27   21   22 2  
    28   22   23 1  
    29   23   24 1  
    30   23   27 2  
    31   24   25 1  
    32   25   26 2  
    33   25   29 1  
    34   26   27 1  
    35   27   28 1  
    36    1   32 1  
    37    1   33 1  
    38    2   34 1  
    39    2   35 1  
    40    3   36 1  
    41    4   37 1  
    42    4   38 1  
    43    5   39 1  
    44    5   40 1  
    45    6   41 1  
    46    7   42 1  
    47    7   43 1  
    48    7   44 1  
    49    8   45 1  
    50   10   46 1  
    51   12   47 1  
    52   13   48 1  
    53   14   49 1  
    54   20   50 1  
    55   28   51 1  
    56   28   52 1  
    57   28   53 1  
    58   29   54 1  
    59   29   55 1  
    60   29   56 1  
@<TRIPOS>SUBSTRUCTURE
     1 D42         1

