### 
### Created by X-TOOL on Mon Sep 10 21:12:53 2018
### 

@<TRIPOS>MOLECULE
2b53_ligand
   45    47     1     0     0
SMALL
GAST_HUCK


@<TRIPOS>ATOM
      1 C1         82.4300   65.0130   59.3270 C.ar      1 D23        -0.0336
      2 C2         83.3220   65.2760   60.4460 C.ar      1 D23         0.0383
      3 C3         83.5370   66.5950   61.0380 C.ar      1 D23        -0.0418
      4 C4         82.8550   67.7220   60.4330 C.ar      1 D23        -0.0698
      5 C5         81.9850   67.4520   59.2960 C.ar      1 D23        -0.0630
      6 C6         81.7040   66.1150   58.7130 C.ar      1 D23        -0.0195
      7 N7         84.0230   64.1860   60.9370 N.pl3     1 D23        -0.3366
      8 C8         80.7080   65.8880   57.5900 C.ar      1 D23        -0.0007
      9 C9         79.4870   66.7300   57.5590 C.ar      1 D23        -0.0342
     10 C10        78.5350   66.6590   56.4760 C.ar      1 D23        -0.0202
     11 C11        78.7520   65.7190   55.3740 C.ar      1 D23         0.0865
     12 C12        79.9610   64.8020   55.3300 C.ar      1 D23         0.0753
     13 C13        80.9060   64.9230   56.4510 C.ar      1 D23        -0.0187
     14 N14        77.8500   65.6320   54.3280 N.ar      1 D23        -0.2446
     15 C15        77.9960   64.7770   53.2800 C.ar      1 D23         0.1680
     16 N16        79.0650   63.9280   53.1600 N.ar      1 D23        -0.2437
     17 C17        80.0260   63.9220   54.1480 C.ar      1 D23         0.1541
     18 N18        80.9900   62.9060   53.8270 N.pl3     1 D23        -0.2861
     19 C19        81.2110   61.7530   52.9140 C.3       1 D23         0.0467
     20 C20        80.0050   60.7700   53.0640 C.3       1 D23        -0.0386
     21 C21        81.2260   62.2460   51.4510 C.3       1 D23        -0.0386
     22 C22        82.5690   61.1050   53.2740 C.3       1 D23        -0.0386
     23 C23        76.8960   64.7290   52.2720 C.3       1 D23         0.4043
     24 F24        76.6800   63.4730   51.9710 F         1 D23        -0.2160
     25 F25        75.8050   65.3020   52.7650 F         1 D23        -0.2160
     26 F26        77.3410   65.3750   51.2510 F         1 D23        -0.2160
     27 H1         82.3069   64.0030   58.9531 H         1 D23         0.0536
     28 H2         84.1832   66.7257   61.8985 H         1 D23         0.0540
     29 H3         82.9875   68.7287   60.8126 H         1 D23         0.0592
     30 H4         81.4989   68.3036   58.8338 H         1 D23         0.0537
     31 H5         83.8779   63.2528   60.5260 H         1 D23         0.1718
     32 H6         84.6891   64.3091   61.7129 H         1 D23         0.1718
     33 H7         79.3040   67.4199   58.3748 H         1 D23         0.0717
     34 H8         77.6611   67.3003   56.4784 H         1 D23         0.0733
     35 H9         81.7849   64.2886   56.4574 H         1 D23         0.0728
     36 H10        81.8105   63.0131   54.4404 H         1 D23         0.1914
     37 H11        80.1491   59.9083   52.3957 H         1 D23         0.0255
     38 H12        79.0730   61.2895   52.7966 H         1 D23         0.0255
     39 H13        79.9442   60.4204   54.1052 H         1 D23         0.0255
     40 H14        81.3896   61.3915   50.7778 H         1 D23         0.0255
     41 H15        82.0369   62.9774   51.3188 H         1 D23         0.0255
     42 H16        80.2622   62.7202   51.2139 H         1 D23         0.0255
     43 H17        82.7538   60.2479   52.6098 H         1 D23         0.0255
     44 H18        82.5457   60.7610   54.3186 H         1 D23         0.0255
     45 H19        83.3730   61.8453   53.1495 H         1 D23         0.0255
@<TRIPOS>BOND
     1    1    2 ar 
     2    1    6 ar 
     3    2    3 ar 
     4    2    7 1  
     5    3    4 ar 
     6    4    5 ar 
     7    5    6 ar 
     8    6    8 1  
     9    8    9 ar 
    10    8   13 ar 
    11    9   10 ar 
    12   10   11 ar 
    13   11   12 ar 
    14   11   14 ar 
    15   12   13 ar 
    16   12   17 ar 
    17   14   15 ar 
    18   15   16 ar 
    19   15   23 1  
    20   16   17 ar 
    21   17   18 1  
    22   18   19 1  
    23   19   20 1  
    24   19   21 1  
    25   19   22 1  
    26   23   24 1  
    27   23   25 1  
    28   23   26 1  
    29    1   27 1  
    30    3   28 1  
    31    4   29 1  
    32    5   30 1  
    33    7   31 1  
    34    7   32 1  
    35    9   33 1  
    36   10   34 1  
    37   13   35 1  
    38   18   36 1  
    39   20   37 1  
    40   20   38 1  
    41   20   39 1  
    42   21   40 1  
    43   21   41 1  
    44   21   42 1  
    45   22   43 1  
    46   22   44 1  
    47   22   45 1  
@<TRIPOS>SUBSTRUCTURE
     1 D23         1

