### 
### Created by X-TOOL on Mon Sep 10 21:12:52 2018
### 

@<TRIPOS>MOLECULE
2b54_ligand
   45    48     1     0     0
SMALL
GAST_HUCK


@<TRIPOS>ATOM
      1 N8        120.4880  -84.9370   91.8640 N.am      1 D05        -0.1972
      2 C7        119.8170  -83.7510   91.7590 C.2       1 D05         0.1575
      3 N6        119.0250  -83.2370   92.7230 N.2       1 D05        -0.2691
      4 C5        118.9100  -83.9470   93.8720 C.2       1 D05         0.1443
      5 C4        119.5950  -85.1780   94.0530 C.2       1 D05         0.0795
      6 C9        120.3910  -85.6520   93.0220 C.2       1 D05         0.2115
      7 N1        118.1280  -83.6850   94.9940 N.pl3     1 D05        -0.1605
      8 N2        118.3150  -84.6860   95.9240 N.2       1 D05        -0.2227
      9 C3        119.1800  -85.5810   95.3970 C.2       1 D05         0.0191
     10 O9        120.9500  -86.7440   93.1570 O.2       1 D05        -0.4069
     11 C11       117.1590  -82.6290   95.1030 C.ar      1 D05         0.1343
     12 C16       115.8170  -82.9780   95.0730 C.ar      1 D05         0.0748
     13 C12       117.4390  -81.2680   95.3240 C.ar      1 D05         0.0748
     14 C15       114.7870  -82.0250   95.2710 C.ar      1 D05        -0.0388
     15 C13       116.4300  -80.3100   95.5160 C.ar      1 D05        -0.0388
     16 C14       115.0850  -80.6670   95.5030 C.ar      1 D05         0.0331
     17 CL17      113.8350  -79.4270   95.8390 Cl        1 D05        -0.0779
     18 C1        119.4830  -86.8030   96.2130 C.3       1 D05        -0.0180
     19 C2        118.5470  -87.9520   95.8440 C.3       1 D05        -0.0556
     20 C20       119.8960  -82.9560   90.4600 C.3       1 D05         0.0648
     21 CL21      115.4420  -84.6380   94.6820 Cl        1 D05        -0.0750
     22 CL22      119.0390  -80.6500   95.3620 Cl        1 D05        -0.0750
     23 C21       121.1780  -82.1590   90.2770 C.ar      1 D05        -0.0397
     24 C22       121.2510  -80.7890   90.6320 C.ar      1 D05        -0.0366
     25 C23       122.4970  -80.1090   90.5020 C.ar      1 D05         0.1106
     26 C24       123.6280  -80.7940   90.0260 C.ar      1 D05         0.1095
     27 C25       123.5380  -82.1500   89.6390 C.ar      1 D05        -0.0473
     28 C26       122.3090  -82.8190   89.7670 C.ar      1 D05        -0.0766
     29 O23       122.6550  -78.7760   90.8720 O.3       1 D05        -0.3384
     30 O24       124.8550  -80.1440   89.9950 O.3       1 D05        -0.3410
     31 H1        121.0418  -85.2757   91.1034 H         1 D05         0.2543
     32 H2        113.7520  -82.3460   95.2436 H         1 D05         0.0611
     33 H3        116.7039  -79.2736   95.6772 H         1 D05         0.0611
     34 H4        119.3567  -86.5642   97.2793 H         1 D05         0.0418
     35 H5        120.5223  -87.1115   96.0269 H         1 D05         0.0418
     36 H6        118.7900  -88.8336   96.4554 H         1 D05         0.0251
     37 H7        118.6713  -88.1987   94.7793 H         1 D05         0.0251
     38 H8        117.5057  -87.6514   96.0317 H         1 D05         0.0251
     39 H9        119.0500  -82.2533   90.4369 H         1 D05         0.0700
     40 H10       119.8093  -83.6620   89.6209 H         1 D05         0.0700
     41 H11       120.3737  -80.2668   90.9964 H         1 D05         0.0458
     42 H12       124.4064  -82.6678   89.2482 H         1 D05         0.0494
     43 H13       122.2323  -83.8582   89.4683 H         1 D05         0.0444
     44 H14       121.8226  -78.4314   91.1736 H         1 D05         0.2442
     45 H15       124.7435  -79.2455   90.2827 H         1 D05         0.2422
@<TRIPOS>BOND
     1    1    2 1  
     2    1    6 am 
     3    2    3 2  
     4    2   20 1  
     5    3    4 1  
     6    4    5 2  
     7    4    7 1  
     8    5    6 1  
     9    5    9 1  
    10    6   10 2  
    11    7    8 1  
    12    7   11 1  
    13    8    9 2  
    14    9   18 1  
    15   11   12 ar 
    16   11   13 ar 
    17   12   14 ar 
    18   12   21 1  
    19   13   15 ar 
    20   13   22 1  
    21   14   16 ar 
    22   15   16 ar 
    23   16   17 1  
    24   18   19 1  
    25   20   23 1  
    26   23   24 ar 
    27   23   28 ar 
    28   24   25 ar 
    29   25   26 ar 
    30   25   29 1  
    31   26   27 ar 
    32   26   30 1  
    33   27   28 ar 
    34    1   31 1  
    35   14   32 1  
    36   15   33 1  
    37   18   34 1  
    38   18   35 1  
    39   19   36 1  
    40   19   37 1  
    41   19   38 1  
    42   20   39 1  
    43   20   40 1  
    44   24   41 1  
    45   27   42 1  
    46   28   43 1  
    47   29   44 1  
    48   30   45 1  
@<TRIPOS>SUBSTRUCTURE
     1 D05         1

