### 
### Created by X-TOOL on Mon Sep 10 21:12:53 2018
### 

@<TRIPOS>MOLECULE
2b55_ligand
   64    68     1     0     0
SMALL
GAST_HUCK


@<TRIPOS>ATOM
      1 N1         29.0940    7.5150   10.4310 N.4       1 D31         0.2187
      2 C2         28.5320    7.1900   11.7590 C.3       1 D31        -0.0321
      3 C3         29.5590    6.5260   12.6850 C.3       1 D31         0.0087
      4 C6         28.9150    6.1700   14.0290 C.3       1 D31        -0.0047
      5 C7         28.5540    7.3900   14.8760 C.3       1 D31        -0.0296
      6 N8         29.7120    8.2970   15.0290 N.4       1 D31         0.2525
      7 C9         30.3730    8.7020   13.7720 C.3       1 D31        -0.0296
      8 C10        30.7340    7.4800   12.9320 C.3       1 D31        -0.0047
      9 C20        29.9930    8.9990   16.2910 C.3       1 D31         0.0644
     10 C21        29.5990   10.4670   16.2590 C.2       1 D31         0.2516
     11 N24        28.7400   10.8700   15.3220 N.am      1 D31        -0.2245
     12 C25        28.1710   12.1580   15.1560 C.ar      1 D31         0.0846
     13 C26        28.4790   13.3430   15.9850 C.ar      1 D31        -0.0331
     14 C27        27.8610   14.6350   15.6430 C.ar      1 D31        -0.0676
     15 C28        26.9420   14.7280   14.4930 C.ar      1 D31        -0.0606
     16 C29        26.6440   13.5430   13.6800 C.ar      1 D31         0.0114
     17 C30        27.2550   12.2490   14.0050 C.ar      1 D31         0.0545
     18 C31        25.8850   13.3310   12.4660 C.2       1 D31         0.0976
     19 C32        26.0540   11.9570   12.0580 C.2       1 D31         0.0530
     20 C33        26.8850   11.2530   13.0140 C.2       1 D31         0.1406
     21 N34        24.7720   13.0240   10.4910 N.2       1 D31        -0.2224
     22 C35        25.3550   11.7750   10.8020 C.2       1 D31         0.0292
     23 C36        25.2020   10.5260    9.9530 C.3       1 D31        -0.0013
     24 C37        24.1450   10.5800    8.8460 C.3       1 D31        -0.0405
     25 C38        23.9080    9.2260    8.1800 C.3       1 D31        -0.0511
     26 C39        25.2220    8.6290    7.6830 C.3       1 D31        -0.0528
     27 C40        26.2400    8.4840    8.8260 C.3       1 D31        -0.0511
     28 C41        26.4920    9.8370    9.5020 C.3       1 D31        -0.0405
     29 O53        30.0260   11.2660   17.0910 O.2       1 D31        -0.3776
     30 O54        27.1960   10.0670   13.0090 O.2       1 D31        -0.3667
     31 N55        25.1060   14.0640   11.5440 N.pl3     1 D31        -0.2197
     32 H1         28.3832    7.9476    9.8621 H         1 D31         0.1994
     33 H2         29.4128    6.6692    9.9849 H         1 D31         0.1994
     34 H3         29.8692    8.1499   10.5404 H         1 D31         0.1994
     35 H4         27.6829    6.5038   11.6244 H         1 D31         0.0816
     36 H5         28.1810    8.1197   12.2307 H         1 D31         0.0816
     37 H6         29.9309    5.6075   12.2075 H         1 D31         0.0356
     38 H7         29.6205    5.5474   14.5988 H         1 D31         0.0321
     39 H8         27.9960    5.5979   13.8337 H         1 D31         0.0321
     40 H9         28.2289    7.0524   15.8711 H         1 D31         0.0815
     41 H10        27.7331    7.9356   14.3876 H         1 D31         0.0815
     42 H11        30.3648    7.5552   15.2283 H         1 D31         0.2053
     43 H12        31.2907    9.2597   14.0104 H         1 D31         0.0815
     44 H13        29.6913    9.3462   13.1972 H         1 D31         0.0815
     45 H14        31.1083    7.8278   11.9579 H         1 D31         0.0321
     46 H15        31.5277    6.9242   13.4526 H         1 D31         0.0321
     47 H16        31.0714    8.9307   16.4967 H         1 D31         0.1069
     48 H17        29.4336    8.5042   17.0986 H         1 D31         0.1069
     49 H18        28.4631   10.1789   14.6544 H         1 D31         0.2292
     50 H19        29.1501   13.2618   16.8324 H         1 D31         0.0537
     51 H20        28.0810   15.5160   16.2351 H         1 D31         0.0617
     52 H21        26.4833   15.6787   14.2465 H         1 D31         0.0539
     53 H22        24.7756    9.8078   10.6688 H         1 D31         0.0456
     54 H23        24.4774   11.2946    8.0786 H         1 D31         0.0289
     55 H24        23.1969   10.9261    9.2833 H         1 D31         0.0289
     56 H25        23.2264    9.3581    7.3268 H         1 D31         0.0267
     57 H26        23.4534    8.5398    8.9097 H         1 D31         0.0267
     58 H27        25.6441    9.2871    6.9092 H         1 D31         0.0265
     59 H28        25.0239    7.6365    7.2522 H         1 D31         0.0265
     60 H29        27.1877    8.1016    8.4192 H         1 D31         0.0267
     61 H30        25.8483    7.7756    9.5708 H         1 D31         0.0267
     62 H31        27.1305    9.6757   10.3831 H         1 D31         0.0289
     63 H32        27.0105   10.4946    8.7888 H         1 D31         0.0289
     64 H33        24.8328   15.0565   11.5779 H         1 D31         0.2536
@<TRIPOS>BOND
     1    1    2 1  
     2    2    3 1  
     3    3    4 1  
     4    3    8 1  
     5    4    5 1  
     6    5    6 1  
     7    6    7 1  
     8    6    9 1  
     9    7    8 1  
    10    9   10 1  
    11   10   11 am 
    12   10   29 2  
    13   11   12 1  
    14   12   13 ar 
    15   12   17 ar 
    16   13   14 ar 
    17   14   15 ar 
    18   15   16 ar 
    19   16   17 ar 
    20   16   18 1  
    21   17   20 1  
    22   18   19 2  
    23   18   31 1  
    24   19   20 1  
    25   19   22 1  
    26   20   30 2  
    27   22   21 2  
    28   21   31 1  
    29   22   23 1  
    30   23   24 1  
    31   23   28 1  
    32   24   25 1  
    33   25   26 1  
    34   26   27 1  
    35   27   28 1  
    36    1   32 1  
    37    1   33 1  
    38    1   34 1  
    39    2   35 1  
    40    2   36 1  
    41    3   37 1  
    42    4   38 1  
    43    4   39 1  
    44    5   40 1  
    45    5   41 1  
    46    6   42 1  
    47    7   43 1  
    48    7   44 1  
    49    8   45 1  
    50    8   46 1  
    51    9   47 1  
    52    9   48 1  
    53   11   49 1  
    54   13   50 1  
    55   14   51 1  
    56   15   52 1  
    57   23   53 1  
    58   24   54 1  
    59   24   55 1  
    60   25   56 1  
    61   25   57 1  
    62   26   58 1  
    63   26   59 1  
    64   27   60 1  
    65   27   61 1  
    66   28   62 1  
    67   28   63 1  
    68   31   64 1  
@<TRIPOS>SUBSTRUCTURE
     1 D31         1

