### 
### Created by X-TOOL on Mon Sep 10 21:12:53 2018
### 

@<TRIPOS>MOLECULE
2b5j_ligand
   39    40     1     0     0
SMALL
GAST_HUCK


@<TRIPOS>ATOM
      1 O11       143.9380  -26.8740   74.2660 O.3       1 3AC        -0.2563
      2 C11       142.9420  -26.9140   73.2820 C.ar      1 3AC         0.1337
      3 C12       143.1970  -26.3650   72.0000 C.ar      1 3AC         0.0829
      4 I12       144.9900  -25.5300   71.5430 I         1 3AC        -0.0620
      5 C13       142.2060  -26.4060   71.0180 C.ar      1 3AC         0.1470
      6 O13       142.4540  -25.8640   69.7600 O.3       1 3AC        -0.3213
      7 N14       141.0010  -26.9680   71.2860 N.ar      1 3AC        -0.2943
      8 C15       140.6990  -27.5170   72.5000 C.ar      1 3AC         0.0082
      9 C51       139.3210  -28.1240   72.6840 C.3       1 3AC        -0.0230
     10 C16       141.6590  -27.5070   73.5590 C.ar      1 3AC         0.0098
     11 C61       141.3260  -28.1240   74.9490 C.3       1 3AC        -0.0245
     12 C62       142.1940  -29.3710   75.2500 C.3       1 3AC        -0.0582
     13 C21       143.9300  -25.9070   75.3140 C.ar      1 3AC         0.1113
     14 C22       142.9310  -24.8830   75.4700 C.ar      1 3AC        -0.0349
     15 C23       143.0000  -23.9680   76.5600 C.ar      1 3AC        -0.0760
     16 C24       144.0660  -24.0720   77.5080 C.ar      1 3AC        -0.0705
     17 C25       145.0610  -25.0890   77.3550 C.ar      1 3AC        -0.0487
     18 C26       144.9820  -25.9880   76.2660 C.ar      1 3AC        -0.0270
     19 C27       146.2160  -25.2190   78.3500 C.3       1 3AC         0.0023
     20 C28       145.8820  -26.1070   79.5040 C.3       1 3AC         0.0820
     21 N29       147.1000  -25.7440   81.7860 N.1       1 3AC        -0.3034
     22 C29       146.5620  -25.9040   80.7650 C.1       1 3AC         0.0918
     23 H1        143.3366  -25.5134   69.7359 H         1 3AC         0.2518
     24 H2        139.2291  -28.5221   73.7053 H         1 3AC         0.0403
     25 H3        139.1794  -28.9389   71.9588 H         1 3AC         0.0403
     26 H4        138.5552  -27.3512   72.5214 H         1 3AC         0.0403
     27 H5        140.2658  -28.4168   74.9634 H         1 3AC         0.0381
     28 H6        141.5082  -27.3677   75.7267 H         1 3AC         0.0381
     29 H7        141.9270  -29.7737   76.2382 H         1 3AC         0.0247
     30 H8        143.2569  -29.0879   75.2445 H         1 3AC         0.0247
     31 H9        142.0145  -30.1370   74.4812 H         1 3AC         0.0247
     32 H10       142.1209  -24.8073   74.7537 H         1 3AC         0.0498
     33 H11       142.2473  -23.1958   76.6704 H         1 3AC         0.0574
     34 H12       144.1201  -23.3811   78.3415 H         1 3AC         0.0471
     35 H13       145.7399  -26.7550   76.1552 H         1 3AC         0.0490
     36 H14       146.4637  -24.2188   78.7351 H         1 3AC         0.0445
     37 H15       147.0881  -25.6362   77.8252 H         1 3AC         0.0445
     38 H16       146.0914  -27.1395   79.1875 H         1 3AC         0.0579
     39 H17       144.8050  -25.9938   79.6967 H         1 3AC         0.0579
@<TRIPOS>BOND
     1    1    2 1  
     2    1   13 1  
     3    2    3 ar 
     4    2   10 ar 
     5    3    4 1  
     6    3    5 ar 
     7    5    6 1  
     8    5    7 ar 
     9    7    8 ar 
    10    8    9 1  
    11    8   10 ar 
    12   10   11 1  
    13   11   12 1  
    14   13   14 ar 
    15   13   18 ar 
    16   14   15 ar 
    17   15   16 ar 
    18   16   17 ar 
    19   17   18 ar 
    20   17   19 1  
    21   19   20 1  
    22   20   22 1  
    23   22   21 3  
    24    6   23 1  
    25    9   24 1  
    26    9   25 1  
    27    9   26 1  
    28   11   27 1  
    29   11   28 1  
    30   12   29 1  
    31   12   30 1  
    32   12   31 1  
    33   14   32 1  
    34   15   33 1  
    35   16   34 1  
    36   18   35 1  
    37   19   36 1  
    38   19   37 1  
    39   20   38 1  
    40   20   39 1  
@<TRIPOS>SUBSTRUCTURE
     1 3AC         1

