### 
### Created by X-TOOL on Mon Sep 10 21:12:54 2018
### 

@<TRIPOS>MOLECULE
2b7a_ligand
   39    42     1     0     0
SMALL
GAST_HUCK


@<TRIPOS>ATOM
      1 O0        117.7080   67.4770   10.8940 O.2       1 IZA        -0.4067
      2 C11       117.2770   66.8780    9.8800 C.2       1 IZA         0.2154
      3 N2        118.0910   66.7430    8.7980 N.am      1 IZA        -0.2198
      4 C12       117.6930   66.0990    7.6860 C.2       1 IZA         0.0633
      5 C13       116.4160   65.5460    7.5940 C.2       1 IZA        -0.0333
      6 C9        115.5180   65.6330    8.6610 C.ar      1 IZA        -0.0055
      7 C1        114.2420   65.0750    8.5710 C.ar      1 IZA         0.0977
      8 C10       115.9050   66.2890    9.8350 C.ar      1 IZA         0.0456
      9 C8        114.9250   66.3790   10.9700 C.ar      1 IZA        -0.0132
     10 C7        115.2030   67.0080   12.1790 C.ar      1 IZA        -0.0233
     11 C6        114.2050   67.0160   13.1460 C.ar      1 IZA         0.1336
     12 F1        114.4580   67.6720   14.4460 F         1 IZA        -0.1794
     13 C5        112.9710   66.4030   12.8920 C.ar      1 IZA        -0.0256
     14 C4        112.7100   65.8180   11.7650 C.ar      1 IZA        -0.0491
     15 C3        113.5770   65.7640   10.8080 C.ar      1 IZA         0.0274
     16 C0        113.3070   65.1380    9.5950 C.ar      1 IZA         0.1278
     17 N1        112.1720   64.5120    9.2100 N.pl3     1 IZA        -0.2423
     18 C2        112.4660   64.0890    7.9580 C.2       1 IZA         0.1004
     19 N0        113.7040   64.4150    7.5220 N.2       1 IZA        -0.2540
     20 C14       111.4810   63.3400    7.0880 C.3       1 IZA        -0.0206
     21 C17       110.3510   62.7540    7.9250 C.3       1 IZA        -0.0898
     22 C16       112.1570   62.2180    6.3120 C.3       1 IZA        -0.0898
     23 C15       110.8870   64.3320    6.0960 C.3       1 IZA        -0.0898
     24 H1        119.0110   67.1335    8.8304 H         1 IZA         0.2567
     25 H2        118.3785   66.0081    6.8447 H         1 IZA         0.1231
     26 H3        116.1147   65.0396    6.6782 H         1 IZA         0.0369
     27 H4        116.1641   67.4754   12.3605 H         1 IZA         0.0563
     28 H5        112.2095   66.4184   13.6633 H         1 IZA         0.0582
     29 H6        111.7374   65.3614   11.6212 H         1 IZA         0.0660
     30 H7        111.2975   64.3874    9.7398 H         1 IZA         0.2408
     31 H8        109.6504   62.2158    7.2696 H         1 IZA         0.0104
     32 H9        109.8189   63.5658    8.4425 H         1 IZA         0.0104
     33 H10       110.7677   62.0572    8.6671 H         1 IZA         0.0104
     34 H11       112.9747   62.6332    5.7046 H         1 IZA         0.0104
     35 H12       111.4215   61.7325    5.6538 H         1 IZA         0.0104
     36 H13       112.5633   61.4777    7.0169 H         1 IZA         0.0104
     37 H14       110.3949   65.1488    6.6444 H         1 IZA         0.0104
     38 H15       110.1487   63.8191    5.4620 H         1 IZA         0.0104
     39 H16       111.6884   64.7444    5.4654 H         1 IZA         0.0104
@<TRIPOS>BOND
     1    1    2 2  
     2    2    3 am 
     3    2    8 1  
     4    3    4 am 
     5    4    5 2  
     6    5    6 1  
     7    6    7 ar 
     8    6    8 ar 
     9    7   16 ar 
    10    7   19 1  
    11    8    9 ar 
    12    9   10 ar 
    13    9   15 ar 
    14   10   11 ar 
    15   11   12 1  
    16   11   13 ar 
    17   13   14 ar 
    18   14   15 ar 
    19   15   16 ar 
    20   16   17 1  
    21   17   18 1  
    22   18   19 2  
    23   18   20 1  
    24   20   21 1  
    25   20   22 1  
    26   20   23 1  
    27    3   24 1  
    28    4   25 1  
    29    5   26 1  
    30   10   27 1  
    31   13   28 1  
    32   14   29 1  
    33   17   30 1  
    34   21   31 1  
    35   21   32 1  
    36   21   33 1  
    37   22   34 1  
    38   22   35 1  
    39   22   36 1  
    40   23   37 1  
    41   23   38 1  
    42   23   39 1  
@<TRIPOS>SUBSTRUCTURE
     1 IZA         1

