### 
### Created by X-TOOL on Mon Sep 10 21:12:55 2018
### 

@<TRIPOS>MOLECULE
2b7d_ligand
   62    65     1     0     0
SMALL
GAST_HUCK


@<TRIPOS>ATOM
      1 C1         -7.9230    5.4370   13.1650 C.ar      1 C1B         0.0127
      2 C2         -7.6930    4.1240   12.6590 C.ar      1 C1B        -0.0715
      3 C3         -8.6350    3.4590   11.8700 C.ar      1 C1B        -0.0621
      4 C4         -9.7850    4.1340   11.6080 C.ar      1 C1B         0.0294
      5 C5        -10.0400    5.3590   12.0580 C.ar      1 C1B         0.0805
      6 C6         -9.1490    6.0590   12.8390 C.ar      1 C1B        -0.0348
      7 C7         -6.9650    6.0700   13.9520 C.cat     1 C1B         0.2301
      8 N1         -7.0210    7.3760   14.0640 N.pl3     1 C1B        -0.2729
      9 N2         -6.0370    5.3420   14.5510 N.pl3     1 C1B        -0.2729
     10 N3        -10.8130    3.7680   10.9190 N.2       1 C1B        -0.3107
     11 N4        -11.2260    5.8050   11.6730 N.pl3     1 C1B        -0.2513
     12 C8        -11.6430    4.7620   10.9700 C.2       1 C1B         0.1345
     13 C1'       -12.8930    4.7590   10.3320 C.ar      1 C1B         0.0592
     14 C2'       -13.7420    5.8530   10.4340 C.ar      1 C1B        -0.0492
     15 C3'       -14.9810    5.8830    9.8200 C.ar      1 C1B        -0.0319
     16 C31'      -15.8850    7.1050   10.0280 C.3       1 C1B         0.0521
     17 C32'      -17.2940    6.5710   10.4520 C.2       1 C1B         0.0494
     18 O33'      -17.3480    6.0230   11.5490 O.co2     1 C1B        -0.5663
     19 O34'      -18.2480    6.7060    9.7060 O.co2     1 C1B        -0.5663
     20 C42'      -15.8190    8.0660    8.7850 C.3       1 C1B         0.0227
     21 C43'      -14.4710    8.8670    8.6690 C.2       1 C1B         0.0384
     22 O44'      -13.8320    9.2200    9.6560 O.co2     1 C1B        -0.5687
     23 O45'      -14.1050    9.1200    7.5370 O.co2     1 C1B        -0.5687
     24 C4'       -15.4050    4.7890    9.0680 C.ar      1 C1B        -0.0562
     25 C5'       -14.6050    3.6490    8.9180 C.ar      1 C1B         0.0086
     26 C6'       -13.3470    3.6620    9.5670 C.ar      1 C1B         0.1109
     27 O6'       -12.4910    2.5780    9.4680 O.3       1 C1B        -0.3286
     28 C1''      -15.0640    2.5660    8.1550 C.ar      1 C1B         0.0023
     29 C2''      -14.2250    1.8650    7.2940 C.ar      1 C1B         0.0884
     30 C3''      -14.6630    0.7920    6.5720 C.ar      1 C1B        -0.0395
     31 C4''      -15.9610    0.3730    6.6680 C.ar      1 C1B        -0.0678
     32 C5''      -16.8440    1.0230    7.4920 C.ar      1 C1B        -0.0329
     33 C51       -18.2800    0.5080    7.5530 C.3       1 C1B         0.0597
     34 N52       -18.7500    0.6910    8.9460 N.am      1 C1B        -0.2637
     35 C53       -19.5610    1.6860    9.2340 C.2       1 C1B         0.2565
     36 O54       -19.9470    2.4590    8.3790 O.2       1 C1B        -0.4009
     37 N55       -20.0080    1.9070   10.4470 N.am      1 C1B        -0.2869
     38 C6''      -16.3960    2.1200    8.2360 C.ar      1 C1B        -0.0611
     39 O2''      -12.9100    2.2330    7.1000 O.3       1 C1B        -0.3360
     40 H1         -6.7589    3.6266   12.8936 H         1 C1B         0.0522
     41 H2         -8.4583    2.4600   11.4880 H         1 C1B         0.0548
     42 H3         -9.3807    7.0570   13.1932 H         1 C1B         0.0544
     43 H4         -6.3265    7.8738   14.6391 H         1 C1B         0.3180
     44 H5         -7.7595    7.9035   13.5768 H         1 C1B         0.3180
     45 H6         -6.0310    4.3185   14.4353 H         1 C1B         0.3180
     46 H7         -5.3204    5.7986   15.1331 H         1 C1B         0.3180
     47 H8        -11.6907    6.7040   11.8648 H         1 C1B         0.2296
     48 H9        -13.4233    6.7117   11.0138 H         1 C1B         0.0563
     49 H10       -15.4932    7.6801   10.8799 H         1 C1B         0.0622
     50 H11       -16.6453    8.7881    8.8614 H         1 C1B         0.0471
     51 H12       -15.9425    7.4624    7.8737 H         1 C1B         0.0471
     52 H13       -16.3764    4.8210    8.5880 H         1 C1B         0.0556
     53 H14       -11.6984    2.7557    9.9608 H         1 C1B         0.2510
     54 H15       -13.9760    0.2680    5.9173 H         1 C1B         0.0522
     55 H16       -16.2949   -0.4798    6.0881 H         1 C1B         0.0523
     56 H17       -18.3105   -0.5575    7.2815 H         1 C1B         0.0659
     57 H18       -18.9159    1.0808    6.8620 H         1 C1B         0.0659
     58 H19       -18.4523    0.0614    9.6637 H         1 C1B         0.1869
     59 H20       -20.6234    2.6759   10.6208 H         1 C1B         0.1808
     60 H21       -19.7335    1.3066   11.1981 H         1 C1B         0.1808
     61 H22       -17.0899    2.6373    8.8887 H         1 C1B         0.0517
     62 H23       -12.7088    2.9843    7.6455 H         1 C1B         0.2469
@<TRIPOS>BOND
     1    1    2 ar 
     2    1    6 ar 
     3    1    7 1  
     4    2    3 ar 
     5    3    4 ar 
     6    4    5 ar 
     7    4   10 1  
     8    5    6 ar 
     9    5   11 1  
    10    7    8 ar 
    11    7    9 ar 
    12   10   12 2  
    13   11   12 1  
    14   12   13 1  
    15   13   14 ar 
    16   13   26 ar 
    17   14   15 ar 
    18   15   16 1  
    19   15   24 ar 
    20   16   17 1  
    21   16   20 1  
    22   17   18 ar 
    23   17   19 ar 
    24   20   21 1  
    25   21   22 ar 
    26   21   23 ar 
    27   24   25 ar 
    28   25   26 ar 
    29   25   28 1  
    30   26   27 1  
    31   28   29 ar 
    32   28   38 ar 
    33   29   30 ar 
    34   29   39 1  
    35   30   31 ar 
    36   31   32 ar 
    37   32   33 1  
    38   32   38 ar 
    39   33   34 1  
    40   34   35 am 
    41   35   36 2  
    42   35   37 am 
    43    2   40 1  
    44    3   41 1  
    45    6   42 1  
    46    8   43 1  
    47    8   44 1  
    48    9   45 1  
    49    9   46 1  
    50   11   47 1  
    51   14   48 1  
    52   16   49 1  
    53   20   50 1  
    54   20   51 1  
    55   24   52 1  
    56   27   53 1  
    57   30   54 1  
    58   31   55 1  
    59   33   56 1  
    60   33   57 1  
    61   34   58 1  
    62   37   59 1  
    63   37   60 1  
    64   38   61 1  
    65   39   62 1  
@<TRIPOS>SUBSTRUCTURE
     1 C1B         1

