### 
### Created by X-TOOL on Mon Sep 10 21:12:53 2018
### 

@<TRIPOS>MOLECULE
2b8l_ligand
   80    83     1     0     0
SMALL
GAST_HUCK


@<TRIPOS>ATOM
      1 C1         26.3510   36.1890    2.5230 C.3       1 5HA        -0.0046
      2 C2         27.6740   35.5740    2.2480 C.3       1 5HA        -0.0222
      3 C3         26.6870   34.8080    3.0100 C.3       1 5HA        -0.0046
      4 N1         28.7390   36.1050    3.1150 N.4       1 5HA         0.2311
      5 C4         29.4720   37.1040    2.3060 C.3       1 5HA        -0.0044
      6 C5         30.8030   37.5220    2.9770 C.3       1 5HA         0.1192
      7 C6         31.5650   38.4160    2.0240 C.3       1 5HA         0.0818
      8 N2         30.8790   39.7120    2.0350 N.am      1 5HA        -0.2786
      9 C7         30.1950   40.1720    0.9560 C.2       1 5HA         0.2025
     10 O2         29.8870   39.4610    0.0010 O.2       1 5HA        -0.3847
     11 O3         31.4810   36.2790    3.1410 O.3       1 5HA        -0.3840
     12 C8         33.0760   38.5650    2.3680 C.3       1 5HA         0.0065
     13 C9         29.8320   41.5880    1.0060 C.ar      1 5HA         0.0397
     14 C10        30.7330   42.5670    1.4570 C.ar      1 5HA        -0.0393
     15 C11        30.3830   43.9310    1.5110 C.ar      1 5HA         0.0398
     16 C12        29.0920   44.2990    1.0720 C.ar      1 5HA        -0.0214
     17 C13        28.1320   43.3290    0.6230 C.ar      1 5HA         0.0754
     18 C14        28.5300   41.9660    0.5900 C.ar      1 5HA        -0.0214
     19 C15        31.3360   44.9360    2.0430 C.2       1 5HA         0.2041
     20 N3         26.7880   43.6240    0.3260 N.am      1 5HA        -0.1796
     21 O4         31.4420   46.0700    1.6050 O.2       1 5HA        -0.3845
     22 C16        26.1150   42.9320   -0.8000 C.3       1 5HA         0.0445
     23 S1         25.9620   44.8620    1.0060 S.o2      1 5HA         0.0593
     24 C23        26.3100   46.3310    0.0220 C.3       1 5HA         0.0790
     25 O5         24.5520   44.5630    0.9080 O.2       1 5HA        -0.1500
     26 O6         26.4980   45.1150    2.3010 O.2       1 5HA        -0.1500
     27 C24        33.7200   40.0050    0.3100 C.ar      1 5HA        -0.0603
     28 C25        34.4600   41.0710   -0.2550 C.ar      1 5HA        -0.0686
     29 C26        35.2490   41.8810    0.5760 C.ar      1 5HA        -0.0687
     30 C27        35.3150   41.6660    1.9560 C.ar      1 5HA        -0.0686
     31 C28        34.5650   40.5900    2.5280 C.ar      1 5HA        -0.0603
     32 C29        33.7790   39.7520    1.7110 C.ar      1 5HA        -0.0408
     33 N4         32.1030   44.5090    3.0840 N.am      1 5HA        -0.2723
     34 C17        33.0780   45.2910    3.8410 C.3       1 5HA         0.0723
     35 C18        34.4390   44.5080    3.8880 C.3       1 5HA        -0.0320
     36 C30        32.5470   45.6460    5.1880 C.ar      1 5HA        -0.0183
     37 C31        32.1710   44.6650    6.1520 C.ar      1 5HA        -0.0582
     38 C32        31.7740   45.0460    7.4420 C.ar      1 5HA        -0.0685
     39 C33        31.6940   46.4230    7.7970 C.ar      1 5HA        -0.0687
     40 C34        31.9930   47.3820    6.8210 C.ar      1 5HA        -0.0685
     41 C35        32.4230   47.0030    5.5410 C.ar      1 5HA        -0.0582
     42 H1         25.6247   36.3274    1.7085 H         1 5HA         0.0322
     43 H2         26.2652   37.0219    3.2363 H         1 5HA         0.0322
     44 H3         28.0136   35.2970    1.2391 H         1 5HA         0.0850
     45 H4         26.2015   33.9316    2.5560 H         1 5HA         0.0322
     46 H5         26.8419   34.6262    4.0837 H         1 5HA         0.0322
     47 H6         29.3594   35.3635    3.4002 H         1 5HA         0.2017
     48 H7         28.3398   36.5416    3.9311 H         1 5HA         0.2017
     49 H8         28.8398   37.9958    2.1830 H         1 5HA         0.0840
     50 H9         29.6915   36.6711    1.3189 H         1 5HA         0.0840
     51 H10        30.6412   38.0292    3.9396 H         1 5HA         0.0672
     52 H11        31.4979   37.9853    1.0141 H         1 5HA         0.0606
     53 H12        30.9160   40.2736    2.8616 H         1 5HA         0.1851
     54 H13        32.3496   36.4372    3.4917 H         1 5HA         0.2101
     55 H14        33.5898   37.6462    2.0490 H         1 5HA         0.0449
     56 H15        33.1673   38.6765    3.4585 H         1 5HA         0.0449
     57 H16        31.7251   42.2648    1.7723 H         1 5HA         0.0576
     58 H17        28.8165   45.3474    1.0739 H         1 5HA         0.0566
     59 H18        27.8342   41.2099    0.2447 H         1 5HA         0.0566
     60 H19        26.7617   42.1241   -1.1730 H         1 5HA         0.0517
     61 H20        25.9226   43.6510   -1.6099 H         1 5HA         0.0517
     62 H21        25.1616   42.5075   -0.4523 H         1 5HA         0.0517
     63 H22        25.7721   47.1919    0.4456 H         1 5HA         0.0487
     64 H23        25.9789   46.1654   -1.0138 H         1 5HA         0.0487
     65 H24        27.3913   46.5324    0.0336 H         1 5HA         0.0487
     66 H25        33.1055   39.3781   -0.3260 H         1 5HA         0.0557
     67 H26        34.4176   41.2603   -1.3215 H         1 5HA         0.0599
     68 H27        35.8202   42.6916    0.1382 H         1 5HA         0.0559
     69 H28        35.9255   42.3052    2.5835 H         1 5HA         0.0599
     70 H29        34.6015   40.4179    3.5976 H         1 5HA         0.0557
     71 H30        31.9861   43.5552    3.3609 H         1 5HA         0.1875
     72 H31        33.2545   46.2332    3.3014 H         1 5HA         0.0716
     73 H32        35.1781   45.0913    4.4567 H         1 5HA         0.0274
     74 H33        34.8066   44.3498    2.8634 H         1 5HA         0.0274
     75 H34        34.2854   43.5346    4.3768 H         1 5HA         0.0274
     76 H35        32.1922   43.6146    5.8852 H         1 5HA         0.0557
     77 H36        31.5261   44.2865    8.1746 H         1 5HA         0.0599
     78 H37        31.4084   46.7218    8.7991 H         1 5HA         0.0559
     79 H38        31.8904   48.4346    7.0589 H         1 5HA         0.0599
     80 H39        32.6638   47.7677    4.8114 H         1 5HA         0.0557
@<TRIPOS>BOND
     1    2    1 1  
     2    3    1 1  
     3    2    3 1  
     4    4    2 1  
     5    5    4 1  
     6    6    5 1  
     7    7    6 1  
     8    6   11 1  
     9    7    8 1  
    10   12    7 1  
    11    8    9 am 
    12    9   10 2  
    13    9   13 1  
    14   32   12 1  
    15   13   14 ar 
    16   13   18 ar 
    17   14   15 ar 
    18   15   16 ar 
    19   15   19 1  
    20   17   16 ar 
    21   18   17 ar 
    22   17   20 1  
    23   19   21 2  
    24   19   33 am 
    25   20   22 1  
    26   20   23 am 
    27   23   24 1  
    28   23   25 2  
    29   23   26 2  
    30   27   28 ar 
    31   27   32 ar 
    32   28   29 ar 
    33   29   30 ar 
    34   30   31 ar 
    35   31   32 ar 
    36   33   34 1  
    37   34   35 1  
    38   34   36 1  
    39   36   37 ar 
    40   36   41 ar 
    41   37   38 ar 
    42   38   39 ar 
    43   39   40 ar 
    44   40   41 ar 
    45    1   42 1  
    46    1   43 1  
    47    2   44 1  
    48    3   45 1  
    49    3   46 1  
    50    4   47 1  
    51    4   48 1  
    52    5   49 1  
    53    5   50 1  
    54    6   51 1  
    55    7   52 1  
    56    8   53 1  
    57   11   54 1  
    58   12   55 1  
    59   12   56 1  
    60   14   57 1  
    61   16   58 1  
    62   18   59 1  
    63   22   60 1  
    64   22   61 1  
    65   22   62 1  
    66   24   63 1  
    67   24   64 1  
    68   24   65 1  
    69   27   66 1  
    70   28   67 1  
    71   29   68 1  
    72   30   69 1  
    73   31   70 1  
    74   33   71 1  
    75   34   72 1  
    76   35   73 1  
    77   35   74 1  
    78   35   75 1  
    79   37   76 1  
    80   38   77 1  
    81   39   78 1  
    82   40   79 1  
    83   41   80 1  
@<TRIPOS>SUBSTRUCTURE
     1 5HA         1

