### 
### Created by X-TOOL on Mon Sep 10 21:12:53 2018
### 

@<TRIPOS>MOLECULE
2b8v_ligand
   72    75     1     0     0
SMALL
GAST_HUCK


@<TRIPOS>ATOM
      1 C1         26.7390   36.0650    2.7320 C.3       1 3BN        -0.0046
      2 C2         28.0150   35.2090    2.6140 C.3       1 3BN        -0.0222
      3 C3         26.7110   34.6590    3.1270 C.3       1 3BN        -0.0046
      4 N1         28.7740   36.2310    3.1570 N.4       1 3BN         0.2311
      5 C4         29.5950   37.1820    2.4740 C.3       1 3BN        -0.0044
      6 C5         31.0020   37.4510    3.0310 C.3       1 3BN         0.1192
      7 C6         31.7630   38.4030    2.0850 C.3       1 3BN         0.0818
      8 N2         31.0740   39.6990    2.0660 N.am      1 3BN        -0.2786
      9 C7         30.3750   40.1420    1.0100 C.2       1 3BN         0.2026
     10 O2         30.0950   39.4110    0.0510 O.2       1 3BN        -0.3846
     11 O3         31.7010   36.3200    3.1110 O.3       1 3BN        -0.3840
     12 C8         33.2020   38.6230    2.5760 C.3       1 3BN         0.0065
     13 C9         29.9760   41.5550    1.1000 C.ar      1 3BN         0.0398
     14 C10        30.8890   42.6020    1.4720 C.ar      1 3BN        -0.0408
     15 C11        30.4740   43.9840    1.5270 C.ar      1 3BN         0.0239
     16 C12        29.1110   44.2850    1.1950 C.ar      1 3BN        -0.0229
     17 C13        28.1560   43.2540    0.8260 C.ar      1 3BN         0.0755
     18 C14        28.6300   41.8950    0.7870 C.ar      1 3BN        -0.0212
     19 C15        31.3850   45.1240    1.8380 C.2       1 3BN         0.1577
     20 N3         26.8220   43.5060    0.5190 N.am      1 3BN        -0.1796
     21 O4         31.2360   46.2030    1.2640 O.2       1 3BN        -0.3670
     22 C16        26.1510   42.7980   -0.6070 C.3       1 3BN         0.0444
     23 C17        32.3570   44.2730    4.0630 C.ar      1 3BN        -0.0434
     24 C18        33.5360   44.0570    4.8720 C.ar      1 3BN        -0.0560
     25 C19        34.7950   44.6010    4.3970 C.ar      1 3BN        -0.0573
     26 C20        34.9050   45.4720    3.2410 C.ar      1 3BN        -0.0560
     27 C21        33.7210   45.6780    2.4320 C.ar      1 3BN        -0.0434
     28 C22        32.4780   45.0090    2.8100 C.ar      1 3BN         0.0340
     29 S1         25.9900   44.7670    1.1370 S.o2      1 3BN         0.0593
     30 C23        26.3160   46.1850    0.0880 C.3       1 3BN         0.0790
     31 O5         24.6060   44.4540    1.0320 O.2       1 3BN        -0.1500
     32 O6         26.5170   45.0760    2.4240 O.2       1 3BN        -0.1500
     33 C24        33.9150   39.7060    0.2790 C.ar      1 3BN        -0.0603
     34 C25        34.6130   40.7760   -0.4050 C.ar      1 3BN        -0.0686
     35 C26        35.3000   41.7660    0.3950 C.ar      1 3BN        -0.0687
     36 C27        35.3550   41.7400    1.8520 C.ar      1 3BN        -0.0686
     37 C28        34.6370   40.6790    2.5310 C.ar      1 3BN        -0.0603
     38 C29        33.9280   39.6770    1.7550 C.ar      1 3BN        -0.0408
     39 H1         26.2103   36.3915    1.8244 H         1 3BN         0.0322
     40 H2         26.6741   36.8523    3.4974 H         1 3BN         0.0322
     41 H3         28.4878   34.7114    1.7544 H         1 3BN         0.0850
     42 H4         26.1501   33.9351    2.5176 H         1 3BN         0.0322
     43 H5         26.6140   34.3959    4.1907 H         1 3BN         0.0322
     44 H6         29.3996   35.7696    3.7987 H         1 3BN         0.2017
     45 H7         28.1142   36.7903    3.6746 H         1 3BN         0.2017
     46 H8         29.0547   38.1401    2.4733 H         1 3BN         0.0840
     47 H9         29.7148   36.8278    1.4395 H         1 3BN         0.0840
     48 H10        30.9164   37.9050    4.0293 H         1 3BN         0.0672
     49 H11        31.7824   37.9744    1.0721 H         1 3BN         0.0606
     50 H12        31.1282   40.2792    2.8787 H         1 3BN         0.1851
     51 H13        32.5665   36.5076    3.4548 H         1 3BN         0.2101
     52 H14        33.7521   37.6734    2.5013 H         1 3BN         0.0449
     53 H15        33.1732   38.9484    3.6264 H         1 3BN         0.0449
     54 H16        31.9138   42.3475    1.7171 H         1 3BN         0.0577
     55 H17        28.7822   45.3176    1.2203 H         1 3BN         0.0566
     56 H18        27.9399   41.1060    0.5105 H         1 3BN         0.0568
     57 H19        26.7880   41.9698   -0.9509 H         1 3BN         0.0517
     58 H20        25.9854   43.5018   -1.4360 H         1 3BN         0.0517
     59 H21        25.1842   42.3996   -0.2655 H         1 3BN         0.0517
     60 H22        31.3943   43.8922    4.3843 H         1 3BN         0.0670
     61 H23        33.4812   43.5061    5.8040 H         1 3BN         0.0630
     62 H24        35.7008   44.3433    4.9338 H         1 3BN         0.0654
     63 H25        35.8436   45.9532    2.9909 H         1 3BN         0.0630
     64 H26        33.7566   46.3192    1.5587 H         1 3BN         0.0670
     65 H27        25.7705   47.0591    0.4732 H         1 3BN         0.0487
     66 H28        25.9823   45.9671   -0.9372 H         1 3BN         0.0487
     67 H29        27.3951   46.3984    0.0848 H         1 3BN         0.0487
     68 H30        33.3926   38.9404   -0.2832 H         1 3BN         0.0557
     69 H31        34.6201   40.8329   -1.4875 H         1 3BN         0.0599
     70 H32        35.8043   42.5760   -0.1194 H         1 3BN         0.0559
     71 H33        35.9120   42.4863    2.4069 H         1 3BN         0.0599
     72 H34        34.6295   40.6339    3.6140 H         1 3BN         0.0557
@<TRIPOS>BOND
     1    2    1 1  
     2    3    1 1  
     3    2    3 1  
     4    4    2 1  
     5    5    4 1  
     6    6    5 1  
     7    7    6 1  
     8    6   11 1  
     9    7    8 1  
    10   12    7 1  
    11    8    9 am 
    12    9   10 2  
    13    9   13 1  
    14   38   12 1  
    15   13   14 ar 
    16   13   18 ar 
    17   14   15 ar 
    18   15   16 ar 
    19   15   19 1  
    20   17   16 ar 
    21   18   17 ar 
    22   17   20 1  
    23   19   21 2  
    24   19   28 1  
    25   20   22 1  
    26   20   29 am 
    27   23   24 ar 
    28   28   23 ar 
    29   24   25 ar 
    30   26   25 ar 
    31   27   26 ar 
    32   28   27 ar 
    33   29   30 1  
    34   29   31 2  
    35   29   32 2  
    36   33   34 ar 
    37   33   38 ar 
    38   34   35 ar 
    39   35   36 ar 
    40   36   37 ar 
    41   37   38 ar 
    42    1   39 1  
    43    1   40 1  
    44    2   41 1  
    45    3   42 1  
    46    3   43 1  
    47    4   44 1  
    48    4   45 1  
    49    5   46 1  
    50    5   47 1  
    51    6   48 1  
    52    7   49 1  
    53    8   50 1  
    54   11   51 1  
    55   12   52 1  
    56   12   53 1  
    57   14   54 1  
    58   16   55 1  
    59   18   56 1  
    60   22   57 1  
    61   22   58 1  
    62   22   59 1  
    63   23   60 1  
    64   24   61 1  
    65   25   62 1  
    66   26   63 1  
    67   27   64 1  
    68   30   65 1  
    69   30   66 1  
    70   30   67 1  
    71   33   68 1  
    72   34   69 1  
    73   35   70 1  
    74   36   71 1  
    75   37   72 1  
@<TRIPOS>SUBSTRUCTURE
     1 3BN         1

