### 
### Created by X-TOOL on Mon Sep 10 21:12:53 2018
### 

@<TRIPOS>MOLECULE
2b9a_ligand
   24    25     1     0     0
SMALL
GAST_HUCK


@<TRIPOS>ATOM
      1 FL1        22.7340   82.8840   59.9470 F         1 FBC        -0.1844
      2 C1         22.0950   83.8580   59.2630 C.ar      1 FBC         0.1316
      3 C6         21.4220   84.8600   59.9560 C.ar      1 FBC         0.0056
      4 C5         20.7760   85.8670   59.2660 C.ar      1 FBC         0.1316
      5 FL2        20.1340   86.8450   59.9490 F         1 FBC        -0.1844
      6 C4         20.7900   85.8590   57.8660 C.ar      1 FBC        -0.0241
      7 C2         22.0990   83.8580   57.8580 C.ar      1 FBC        -0.0241
      8 C3         21.4450   84.8600   57.1350 C.ar      1 FBC        -0.0202
      9 C12        21.4350   84.8890   55.7250 C.ar      1 FBC        -0.0175
     10 C7         21.4260   86.1190   55.0720 C.ar      1 FBC        -0.0509
     11 C8         21.4250   86.2080   53.6830 C.ar      1 FBC        -0.0473
     12 C11        21.4240   83.7290   54.9180 C.ar      1 FBC        -0.0509
     13 C10        21.3970   83.8130   53.5140 C.ar      1 FBC        -0.0473
     14 C9         21.4070   85.0670   52.8960 C.ar      1 FBC         0.0099
     15 C          21.4230   85.2230   51.3940 C.2       1 FBC         0.0627
     16 OC3        20.4420   85.7630   50.8460 O.co2     1 FBC        -0.5608
     17 OC1        22.3720   84.7990   50.6870 O.co2     1 FBC        -0.5608
     18 H1         21.4048   84.8500   61.0398 H         1 FBC         0.0594
     19 H2         20.2779   86.6507   57.3312 H         1 FBC         0.0578
     20 H3         22.6175   83.0685   57.3261 H         1 FBC         0.0578
     21 H4         21.4196   87.0296   55.6600 H         1 FBC         0.0630
     22 H5         21.4385   87.1833   53.2100 H         1 FBC         0.0650
     23 H6         21.4366   82.7537   55.3909 H         1 FBC         0.0630
     24 H7         21.3686   82.9103   52.9145 H         1 FBC         0.0650
@<TRIPOS>BOND
     1    1    2 1  
     2    2    3 ar 
     3    2    7 ar 
     4    3    4 ar 
     5    4    5 1  
     6    4    6 ar 
     7    6    8 ar 
     8    7    8 ar 
     9    8    9 1  
    10    9   10 ar 
    11    9   12 ar 
    12   10   11 ar 
    13   11   14 ar 
    14   12   13 ar 
    15   13   14 ar 
    16   14   15 1  
    17   15   16 ar 
    18   15   17 ar 
    19    3   18 1  
    20    6   19 1  
    21    7   20 1  
    22   10   21 1  
    23   11   22 1  
    24   12   23 1  
    25   13   24 1  
@<TRIPOS>SUBSTRUCTURE
     1 FBC         1

