### 
### Created by X-TOOL on Mon Sep 10 21:12:53 2018
### 

@<TRIPOS>MOLECULE
2baj_ligand
   47    49     1     0     0
SMALL
GAST_HUCK


@<TRIPOS>ATOM
      1 O27        13.8160   -0.5000   29.2140 O.2       1 1PP        -0.3785
      2 C17        13.2860   -1.2990   29.9740 C.2       1 1PP         0.3237
      3 N18        13.8730   -2.4580   30.2840 N.am      1 1PP        -0.2125
      4 C19        15.0720   -2.8530   29.7870 C.ar      1 1PP         0.0818
      5 C20        15.2190   -4.1800   29.4920 C.ar      1 1PP         0.0729
      6 CL25       13.8770   -5.3050   29.7430 Cl        1 1PP        -0.0825
      7 C21        16.4860   -4.7090   28.9280 C.ar      1 1PP         0.0408
      8 CL26       16.5830   -6.4680   28.6080 Cl        1 1PP        -0.0742
      9 C22        17.5510   -3.8320   28.7160 C.ar      1 1PP        -0.0629
     10 C23        17.3600   -2.4730   29.0370 C.ar      1 1PP        -0.0749
     11 C24        16.1470   -1.9880   29.5490 C.ar      1 1PP        -0.0407
     12 N16        12.1000   -1.0550   30.5370 N.am      1 1PP        -0.1792
     13 C11        11.3770    0.0560   30.3120 C.2       1 1PP         0.2198
     14 C10        11.1570    0.7740   29.1300 C.2       1 1PP        -0.0187
     15 C9         10.2720    1.7720   29.5650 C.2       1 1PP        -0.0024
     16 C12         9.6910    2.8450   28.6660 C.3       1 1PP        -0.0451
     17 C15         8.6200    2.1560   27.8200 C.3       1 1PP        -0.0851
     18 C14        10.8080    3.4610   27.8240 C.3       1 1PP        -0.0851
     19 C13         9.0550    3.9330   29.5310 C.3       1 1PP        -0.0851
     20 N8          9.9100    1.7040   30.8550 N.2       1 1PP        -0.1653
     21 N7         10.6260    0.5800   31.3080 N.pl3     1 1PP        -0.1031
     22 C5         10.5510    0.2340   32.6440 C.ar      1 1PP         0.1285
     23 C6         11.6520   -0.1180   33.4260 C.ar      1 1PP        -0.0207
     24 C4          9.3470    0.2210   33.3770 C.ar      1 1PP        -0.0207
     25 C3          9.2290   -0.1010   34.7700 C.ar      1 1PP        -0.0631
     26 C2         10.3760   -0.4190   35.5210 C.ar      1 1PP        -0.0662
     27 C1         11.6060   -0.3870   34.8280 C.ar      1 1PP        -0.0631
     28 H1         13.4015   -3.0699   30.9191 H         1 1PP         0.2268
     29 H2         18.4951   -4.1850   28.3171 H         1 1PP         0.0493
     30 H3         18.1782   -1.7787   28.8831 H         1 1PP         0.0579
     31 H4         16.0408   -0.9306   29.7629 H         1 1PP         0.0503
     32 H5         11.7273   -1.7396   31.1635 H         1 1PP         0.2345
     33 H6         11.5653    0.6028   28.1351 H         1 1PP         0.0222
     34 H7          8.1593    2.8902   27.1427 H         1 1PP         0.0133
     35 H8          7.8489    1.7313   28.4795 H         1 1PP         0.0133
     36 H9          9.0812    1.3509   27.2291 H         1 1PP         0.0133
     37 H10        11.5447    3.9397   28.4859 H         1 1PP         0.0133
     38 H11        10.3822    4.2137   27.1442 H         1 1PP         0.0133
     39 H12        11.3011    2.6729   27.2359 H         1 1PP         0.0133
     40 H13         8.2502    3.4942   30.1390 H         1 1PP         0.0133
     41 H14         8.6387    4.7192   28.8840 H         1 1PP         0.0133
     42 H15         9.8184    4.3685   30.1925 H         1 1PP         0.0133
     43 H16        12.6142   -0.1929   32.9324 H         1 1PP         0.0608
     44 H17         8.4371    0.4747   32.8453 H         1 1PP         0.0608
     45 H18         8.2546   -0.0994   35.2450 H         1 1PP         0.0607
     46 H19        10.3185   -0.6743   36.5729 H         1 1PP         0.0578
     47 H20        12.5283   -0.5692   35.3677 H         1 1PP         0.0607
@<TRIPOS>BOND
     1    1    2 2  
     2    2    3 am 
     3    2   12 am 
     4    3    4 1  
     5    4    5 ar 
     6    4   11 ar 
     7    5    6 1  
     8    5    7 ar 
     9    7    8 1  
    10    7    9 ar 
    11    9   10 ar 
    12   10   11 ar 
    13   12   13 1  
    14   13   14 2  
    15   13   21 1  
    16   14   15 1  
    17   15   16 1  
    18   15   20 2  
    19   16   17 1  
    20   16   18 1  
    21   16   19 1  
    22   20   21 1  
    23   21   22 1  
    24   22   23 ar 
    25   22   24 ar 
    26   23   27 ar 
    27   24   25 ar 
    28   25   26 ar 
    29   26   27 ar 
    30    3   28 1  
    31    9   29 1  
    32   10   30 1  
    33   11   31 1  
    34   12   32 1  
    35   14   33 1  
    36   17   34 1  
    37   17   35 1  
    38   17   36 1  
    39   18   37 1  
    40   18   38 1  
    41   18   39 1  
    42   19   40 1  
    43   19   41 1  
    44   19   42 1  
    45   23   43 1  
    46   24   44 1  
    47   25   45 1  
    48   26   46 1  
    49   27   47 1  
@<TRIPOS>SUBSTRUCTURE
     1 1PP         1

