### 
### Created by X-TOOL on Mon Sep 10 21:12:53 2018
### 

@<TRIPOS>MOLECULE
2bak_ligand
   81    86     1     0     0
SMALL
GAST_HUCK


@<TRIPOS>ATOM
      1 C1         -3.9910   -1.7880   26.9670 C.3       1 AQZ         0.0601
      2 O2         -3.8760   -0.5170   26.3300 O.3       1 AQZ        -0.3162
      3 C3         -3.9240   -0.4240   24.9350 C.ar      1 AQZ         0.1322
      4 C4         -3.8950   -1.4880   24.0170 C.ar      1 AQZ        -0.0169
      5 C5         -3.9490   -1.2820   22.6480 C.ar      1 AQZ         0.0264
      6 N6         -3.9180   -2.3630   21.8790 N.ar      1 AQZ        -0.3055
      7 C7         -3.9760   -2.1700   20.5700 C.ar      1 AQZ         0.0524
      8 N8         -4.0660   -0.9810   19.9650 N.ar      1 AQZ        -0.2612
      9 C9         -4.0760    0.1020   20.7500 C.ar      1 AQZ         0.1492
     10 N10        -4.1350    1.3720   20.1410 N.pl3     1 AQZ        -0.2546
     11 C11        -4.4030    1.6230   18.7890 C.ar      1 AQZ         0.0571
     12 C12        -3.4230    2.2170   17.9790 C.ar      1 AQZ        -0.0231
     13 C13        -3.7160    2.5190   16.6400 C.ar      1 AQZ         0.0505
     14 N14        -2.7210    3.1140   15.8370 N.am      1 AQZ        -0.2377
     15 C15        -1.3610    2.8650   15.9100 C.2       1 AQZ         0.2371
     16 O16        -0.8250    2.0720   16.7100 O.2       1 AQZ        -0.3688
     17 C17        -0.4980    3.5800   14.8970 C.ar      1 AQZ         0.0633
     18 C18        -0.7710    4.8250   14.2880 C.ar      1 AQZ        -0.0284
     19 C19         0.1480    5.2990   13.3450 C.ar      1 AQZ         0.0010
     20 N20         1.2830    4.6040   12.9770 N.ar      1 AQZ        -0.2809
     21 C21         1.5260    3.4010   13.5310 C.ar      1 AQZ         0.1191
     22 C22         0.6350    2.8700   14.4870 C.ar      1 AQZ         0.0038
     23 N23         2.6750    2.6730   13.1370 N.pl3     1 AQZ        -0.2890
     24 C24         3.8810    3.3910   12.6360 C.3       1 AQZ         0.0532
     25 C25         4.9340    2.4080   12.0260 C.3       1 AQZ         0.0678
     26 O26         5.0310    1.2170   12.8090 O.3       1 AQZ        -0.3758
     27 C27         3.7180    0.6310   12.8450 C.3       1 AQZ         0.0678
     28 C28         2.9320    1.4260   13.8580 C.3       1 AQZ         0.0532
     29 C29        -4.9690    2.1930   16.1300 C.ar      1 AQZ        -0.0581
     30 C30        -5.9360    1.6210   16.9270 C.ar      1 AQZ        -0.0814
     31 C31        -5.6920    1.3110   18.2530 C.ar      1 AQZ        -0.0345
     32 C32        -6.8440    0.6870   19.0230 C.3       1 AQZ        -0.0398
     33 C33        -4.0350    0.0250   22.1370 C.ar      1 AQZ         0.0390
     34 C34        -4.0460    1.1320   23.0200 C.ar      1 AQZ        -0.0172
     35 C35        -3.9960    0.8840   24.4260 C.ar      1 AQZ         0.1325
     36 O36        -4.0130    1.8410   25.3990 O.3       1 AQZ        -0.3114
     37 C37        -3.8520    3.1850   24.9290 C.3       1 AQZ         0.1090
     38 C38        -3.8090    4.1810   26.1220 C.3       1 AQZ        -0.0036
     39 N39        -2.9750    3.7180   27.2460 N.4       1 AQZ         0.2371
     40 C40        -3.1890    4.3090   28.5760 C.3       1 AQZ        -0.0316
     41 C41        -2.2410    3.4330   29.3810 C.3       1 AQZ        -0.0077
     42 C42        -1.0010    3.4880   28.4930 C.3       1 AQZ        -0.0077
     43 C43        -1.5130    3.7320   27.0630 C.3       1 AQZ        -0.0316
     44 H1         -3.9309   -1.6583   28.0577 H         1 AQZ         0.0579
     45 H2         -3.1735   -2.4424   26.6300 H         1 AQZ         0.0579
     46 H3         -4.9572   -2.2436   26.7047 H         1 AQZ         0.0579
     47 H4         -3.8282   -2.5027   24.3924 H         1 AQZ         0.0496
     48 H5         -3.9482   -3.0491   19.9364 H         1 AQZ         0.1017
     49 H6         -3.9658    2.1893   20.7446 H         1 AQZ         0.2194
     50 H7         -2.4437    2.4417   18.3858 H         1 AQZ         0.0405
     51 H8         -3.0256    3.7762   15.1524 H         1 AQZ         0.2232
     52 H9         -1.6593    5.3921   14.5417 H         1 AQZ         0.0644
     53 H10        -0.0406    6.2599   12.8802 H         1 AQZ         0.0791
     54 H11         0.8323    1.8926   14.9122 H         1 AQZ         0.0660
     55 H12         4.3446    3.9342   13.4727 H         1 AQZ         0.0542
     56 H13         3.5719    4.1070   11.8603 H         1 AQZ         0.0542
     57 H14         5.9161    2.9028   11.9995 H         1 AQZ         0.0580
     58 H15         4.6292    2.1428   11.0029 H         1 AQZ         0.0580
     59 H16         3.7790   -0.4236   13.1517 H         1 AQZ         0.0580
     60 H17         3.2428    0.6982   11.8552 H         1 AQZ         0.0580
     61 H18         1.9934    0.9175   14.1232 H         1 AQZ         0.0542
     62 H19         3.5218    1.6058   14.7689 H         1 AQZ         0.0542
     63 H20        -5.1879    2.3927   15.0873 H         1 AQZ         0.0400
     64 H21        -6.9117    1.4087   16.5050 H         1 AQZ         0.0492
     65 H22        -6.5283    0.4881   20.0578 H         1 AQZ         0.0344
     66 H23        -7.1381   -0.2573   18.5415 H         1 AQZ         0.0344
     67 H24        -7.6995    1.3785   19.0272 H         1 AQZ         0.0344
     68 H25        -4.0914    2.1453   22.6375 H         1 AQZ         0.0546
     69 H26        -4.6971    3.4424   24.2736 H         1 AQZ         0.0665
     70 H27        -2.9123    3.2595   24.3620 H         1 AQZ         0.0665
     71 H28        -4.8354    4.3296   26.4885 H         1 AQZ         0.0841
     72 H29        -3.4061    5.1389   25.7613 H         1 AQZ         0.0841
     73 H30        -3.2311    2.7473   27.3367 H         1 AQZ         0.2034
     74 H31        -4.2316    4.2046   28.9109 H         1 AQZ         0.0814
     75 H32        -2.8980    5.3693   28.6079 H         1 AQZ         0.0814
     76 H33        -2.6231    2.4066   29.4837 H         1 AQZ         0.0319
     77 H34        -2.0463    3.8533   30.3787 H         1 AQZ         0.0319
     78 H35        -0.4514    2.5366   28.5448 H         1 AQZ         0.0319
     79 H36        -0.3415    4.3101   28.8081 H         1 AQZ         0.0319
     80 H37        -1.1691    4.7030   26.6771 H         1 AQZ         0.0814
     81 H38        -1.1891    2.9312   26.3820 H         1 AQZ         0.0814
@<TRIPOS>BOND
     1    1    2 1  
     2    2    3 1  
     3    3    4 ar 
     4    3   35 ar 
     5    4    5 ar 
     6    5    6 ar 
     7    5   33 ar 
     8    6    7 ar 
     9    7    8 ar 
    10    8    9 ar 
    11    9   10 1  
    12    9   33 ar 
    13   10   11 1  
    14   11   12 ar 
    15   11   31 ar 
    16   12   13 ar 
    17   13   14 1  
    18   13   29 ar 
    19   14   15 am 
    20   15   16 2  
    21   15   17 1  
    22   17   18 ar 
    23   17   22 ar 
    24   18   19 ar 
    25   19   20 ar 
    26   20   21 ar 
    27   21   22 ar 
    28   21   23 1  
    29   23   24 1  
    30   23   28 1  
    31   24   25 1  
    32   25   26 1  
    33   26   27 1  
    34   27   28 1  
    35   29   30 ar 
    36   30   31 ar 
    37   31   32 1  
    38   33   34 ar 
    39   34   35 ar 
    40   35   36 1  
    41   36   37 1  
    42   37   38 1  
    43   38   39 1  
    44   39   40 1  
    45   39   43 1  
    46   40   41 1  
    47   41   42 1  
    48   42   43 1  
    49    1   44 1  
    50    1   45 1  
    51    1   46 1  
    52    4   47 1  
    53    7   48 1  
    54   10   49 1  
    55   12   50 1  
    56   14   51 1  
    57   18   52 1  
    58   19   53 1  
    59   22   54 1  
    60   24   55 1  
    61   24   56 1  
    62   25   57 1  
    63   25   58 1  
    64   27   59 1  
    65   27   60 1  
    66   28   61 1  
    67   28   62 1  
    68   29   63 1  
    69   30   64 1  
    70   32   65 1  
    71   32   66 1  
    72   32   67 1  
    73   34   68 1  
    74   37   69 1  
    75   37   70 1  
    76   38   71 1  
    77   38   72 1  
    78   39   73 1  
    79   40   74 1  
    80   40   75 1  
    81   41   76 1  
    82   41   77 1  
    83   42   78 1  
    84   42   79 1  
    85   43   80 1  
    86   43   81 1  
@<TRIPOS>SUBSTRUCTURE
     1 AQZ         1

