### 
### Created by X-TOOL on Mon Sep 10 21:12:53 2018
### 

@<TRIPOS>MOLECULE
2bal_ligand
   50    53     1     0     0
SMALL
GAST_HUCK


@<TRIPOS>ATOM
      1 N1         -3.4720   -1.8760   19.8050 N.pl3     1 PQA        -0.2994
      2 C2         -3.2090   -0.7670   20.5380 C.2       1 PQA         0.1943
      3 C3         -2.7450   -0.6820   21.8380 C.2       1 PQA         0.0655
      4 C4         -2.6450    0.7020   22.0820 C.2       1 PQA        -0.0050
      5 N5         -3.0140    1.4410   21.0360 N.2       1 PQA        -0.2217
      6 N6         -3.3480    0.5360   20.0700 N.pl3     1 PQA        -0.1386
      7 C7         -3.8560    0.9580   18.8210 C.ar      1 PQA         0.1080
      8 C8         -3.1310    1.5570   17.7900 C.ar      1 PQA        -0.0282
      9 C9         -3.7900    1.9150   16.6150 C.ar      1 PQA        -0.0327
     10 C10        -5.1490    1.6710   16.4640 C.ar      1 PQA         0.1245
     11 F11        -5.7650    2.0290   15.3300 F         1 PQA        -0.1896
     12 C12        -5.8820    1.0610   17.4730 C.ar      1 PQA        -0.0327
     13 C13        -5.2360    0.7080   18.6530 C.ar      1 PQA        -0.0282
     14 C14        -2.4700   -1.8390   22.6650 C.2       1 PQA         0.1241
     15 O15        -2.8650   -2.9540   22.3220 O.2       1 PQA        -0.3957
     16 C16        -1.7400   -1.7020   23.9480 C.ar      1 PQA         0.0156
     17 C17        -0.6230   -0.8560   24.0650 C.ar      1 PQA        -0.0556
     18 C18         0.0410   -0.7510   25.2950 C.ar      1 PQA        -0.0650
     19 C19        -0.4020   -1.4910   26.3870 C.ar      1 PQA        -0.0288
     20 C20        -1.5050   -2.3350   26.2710 C.ar      1 PQA         0.0966
     21 O21        -1.8710   -3.0090   27.4110 O.3       1 PQA        -0.3134
     22 C22        -3.2360   -2.8040   27.8010 C.3       1 PQA         0.0909
     23 C23        -3.7740   -4.1230   28.3590 C.3       1 PQA         0.0183
     24 C24        -3.2380   -4.4370   29.7580 C.3       1 PQA        -0.0309
     25 N25        -2.2840   -3.4430   30.2770 N.4       1 PQA         0.2271
     26 C26        -2.7700   -2.0620   30.2230 C.3       1 PQA        -0.0309
     27 C27        -3.2870   -1.6700   28.8380 C.3       1 PQA         0.0183
     28 C28        -2.1810   -2.4520   25.0530 C.ar      1 PQA        -0.0160
     29 H1         -3.3454   -2.8099   20.2205 H         1 PQA         0.1833
     30 H2         -3.7985   -1.7850   18.8324 H         1 PQA         0.1833
     31 H3         -2.3023    1.1235   23.0258 H         1 PQA         0.0649
     32 H4         -2.0687    1.7416   17.9015 H         1 PQA         0.0571
     33 H5         -3.2368    2.3881   15.8118 H         1 PQA         0.0586
     34 H6         -6.9399    0.8632   17.3433 H         1 PQA         0.0586
     35 H7         -5.7971    0.2364   19.4516 H         1 PQA         0.0571
     36 H8         -0.2773   -0.2882   23.2088 H         1 PQA         0.0574
     37 H9          0.8979   -0.0947   25.3953 H         1 PQA         0.0601
     38 H10         0.1153   -1.4103   27.3362 H         1 PQA         0.0578
     39 H11        -3.8341   -2.5139   26.9246 H         1 PQA         0.0653
     40 H12        -3.4819   -4.9374   27.6797 H         1 PQA         0.0346
     41 H13        -4.8712   -4.0624   28.4083 H         1 PQA         0.0346
     42 H14        -2.7331   -5.4136   29.7226 H         1 PQA         0.0815
     43 H15        -4.0912   -4.4901   30.4502 H         1 PQA         0.0815
     44 H16        -1.4377   -3.5022   29.7326 H         1 PQA         0.2013
     45 H17        -2.0819   -3.6700   31.2381 H         1 PQA         0.2013
     46 H18        -1.9441   -1.3878   30.4937 H         1 PQA         0.0815
     47 H19        -3.5887   -1.9488   30.9488 H         1 PQA         0.0815
     48 H20        -4.3322   -1.3429   28.9401 H         1 PQA         0.0346
     49 H21        -2.6760   -0.8345   28.4657 H         1 PQA         0.0346
     50 H22        -3.0352   -3.1131   24.9613 H         1 PQA         0.0590
@<TRIPOS>BOND
     1    1    2 1  
     2    2    3 2  
     3    2    6 1  
     4    3    4 1  
     5    3   14 1  
     6    4    5 2  
     7    5    6 1  
     8    6    7 1  
     9    7    8 ar 
    10    7   13 ar 
    11    8    9 ar 
    12    9   10 ar 
    13   10   11 1  
    14   10   12 ar 
    15   12   13 ar 
    16   14   15 2  
    17   14   16 1  
    18   16   17 ar 
    19   16   28 ar 
    20   17   18 ar 
    21   18   19 ar 
    22   19   20 ar 
    23   20   21 1  
    24   20   28 ar 
    25   21   22 1  
    26   22   23 1  
    27   22   27 1  
    28   23   24 1  
    29   24   25 1  
    30   25   26 1  
    31   26   27 1  
    32    1   29 1  
    33    1   30 1  
    34    4   31 1  
    35    8   32 1  
    36    9   33 1  
    37   12   34 1  
    38   13   35 1  
    39   17   36 1  
    40   18   37 1  
    41   19   38 1  
    42   22   39 1  
    43   23   40 1  
    44   23   41 1  
    45   24   42 1  
    46   24   43 1  
    47   25   44 1  
    48   25   45 1  
    49   26   46 1  
    50   26   47 1  
    51   27   48 1  
    52   27   49 1  
    53   28   50 1  
@<TRIPOS>SUBSTRUCTURE
     1 PQA         1

