### 
### Created by X-TOOL on Mon Sep 10 21:12:53 2018
### 

@<TRIPOS>MOLECULE
2ban_ligand
   52    53     1     0     0
SMALL
GAST_HUCK


@<TRIPOS>ATOM
      1 C2        144.0250  -25.4270   70.8470 C.2       1 357         0.2064
      2 C3        144.9720  -25.0850   71.8610 C.2       1 357         0.0840
      3 C4        144.7620  -25.5750   73.1950 C.2       1 357        -0.0394
      4 C5        143.6280  -26.4190   73.4760 C.2       1 357        -0.0409
      5 O8        144.1700  -25.0110   69.6430 O.2       1 357        -0.4282
      6 C10       143.3770  -26.9830   74.8940 C.3       1 357        -0.0434
      7 C11       142.3510  -26.1440   75.6740 C.3       1 357        -0.0628
      8 C1        145.2800  -24.1140   75.2780 C.ar      1 357        -0.0422
      9 C7        145.7880  -25.1930   74.2870 C.3       1 357        -0.0009
     10 C6        142.7250  -26.7080   72.3990 C.2       1 357         0.0568
     11 C7        141.4920  -27.5790   72.5940 C.3       1 357        -0.0049
     12 N1        142.9620  -26.2170   71.1440 N.am      1 357        -0.2355
     13 N13       146.1040  -24.2510   71.5790 N.pl3     1 357        -0.3277
     14 C14       147.1980  -24.8890   70.8460 C.3       1 357         0.0079
     15 C15       145.8580  -22.9620   70.8520 C.3       1 357         0.0426
     16 C16       144.9630  -22.0110   71.6780 C.3       1 357         0.0658
     17 O17       144.7620  -20.8920   71.0080 O.3       1 357        -0.3811
     18 C18       144.0650  -19.8170   71.3260 C.3       1 357         0.0365
     19 C6        145.8380  -24.0870   76.5740 C.ar      1 357        -0.0658
     20 C5        145.4230  -23.1300   77.5330 C.ar      1 357        -0.0750
     21 C4        144.4290  -22.1790   77.1940 C.ar      1 357        -0.0674
     22 C3        143.8520  -22.1890   75.8990 C.ar      1 357        -0.0527
     23 C8        142.7870  -21.1680   75.5380 C.3       1 357        -0.0327
     24 C2        144.2730  -23.1510   74.9380 C.ar      1 357        -0.0580
     25 H1        144.3273  -26.9870   75.4480 H         1 357         0.0318
     26 H2        142.9999  -28.0125   74.8052 H         1 357         0.0318
     27 H3        142.2042  -26.5803   76.6731 H         1 357         0.0240
     28 H4        141.3938  -26.1386   75.1321 H         1 357         0.0240
     29 H5        142.7211  -25.1131   75.7749 H         1 357         0.0240
     30 H6        146.6932  -24.8103   73.7928 H         1 357         0.0542
     31 H7        146.0377  -26.0985   74.8594 H         1 357         0.0542
     32 H8        140.9495  -27.6651   71.6410 H         1 357         0.0432
     33 H9        140.8359  -27.1219   73.3494 H         1 357         0.0432
     34 H10       141.7995  -28.5794   72.9325 H         1 357         0.0432
     35 H11       142.3224  -26.4510   70.4117 H         1 357         0.2431
     36 H12       148.0067  -24.1605   70.6869 H         1 357         0.0465
     37 H13       146.8288  -25.2452   69.8730 H         1 357         0.0465
     38 H14       147.5811  -25.7408   71.4271 H         1 357         0.0465
     39 H15       145.3612  -23.1799   69.8951 H         1 357         0.0524
     40 H16       146.8227  -22.4693   70.6605 H         1 357         0.0524
     41 H17       145.4582  -21.7809   72.6329 H         1 357         0.0578
     42 H18       143.9963  -22.4978   71.8742 H         1 357         0.0578
     43 H19       144.1306  -19.0828   70.5096 H         1 357         0.0523
     44 H20       144.4708  -19.3765   72.2487 H         1 357         0.0523
     45 H21       143.0128  -20.0958   71.4847 H         1 357         0.0523
     46 H22       146.5984  -24.8120   76.8408 H         1 357         0.0502
     47 H23       145.8647  -23.1255   78.5229 H         1 357         0.0582
     48 H24       144.1099  -21.4442   77.9243 H         1 357         0.0500
     49 H25       142.4606  -21.3300   74.5001 H         1 357         0.0390
     50 H26       143.2021  -20.1542   75.6377 H         1 357         0.0390
     51 H27       141.9270  -21.2803   76.2146 H         1 357         0.0390
     52 H28       143.8319  -23.1558   73.9478 H         1 357         0.0496
@<TRIPOS>BOND
     1    1    2 1  
     2    1    5 2  
     3    1   12 am 
     4    2    3 2  
     5    2   13 1  
     6    3    4 1  
     7    3    9 1  
     8    4    6 1  
     9    4   10 2  
    10    6    7 1  
    11    9    8 1  
    12    8   19 ar 
    13    8   24 ar 
    14   10   11 1  
    15   10   12 am 
    16   13   14 1  
    17   13   15 1  
    18   15   16 1  
    19   16   17 1  
    20   17   18 1  
    21   19   20 ar 
    22   20   21 ar 
    23   21   22 ar 
    24   22   23 1  
    25   22   24 ar 
    26    6   25 1  
    27    6   26 1  
    28    7   27 1  
    29    7   28 1  
    30    7   29 1  
    31    9   30 1  
    32    9   31 1  
    33   11   32 1  
    34   11   33 1  
    35   11   34 1  
    36   12   35 1  
    37   14   36 1  
    38   14   37 1  
    39   14   38 1  
    40   15   39 1  
    41   15   40 1  
    42   16   41 1  
    43   16   42 1  
    44   18   43 1  
    45   18   44 1  
    46   18   45 1  
    47   19   46 1  
    48   20   47 1  
    49   21   48 1  
    50   23   49 1  
    51   23   50 1  
    52   23   51 1  
    53   24   52 1  
@<TRIPOS>SUBSTRUCTURE
     1 357         1

