### 
### Created by X-TOOL on Mon Sep 10 21:12:54 2018
### 

@<TRIPOS>MOLECULE
2bb7_ligand
   25    26     1     0     0
SMALL
GAST_HUCK


@<TRIPOS>ATOM
      1 O2         -2.8350    1.5100   10.7030 O.2       1 QMS        -0.1493
      2 S1         -4.0670    1.0680   10.0430 S.o2      1 QMS         0.0604
      3 O1         -4.9790    0.6440   11.0990 O.2       1 QMS        -0.1493
      4 C7         -4.7920    2.2890    9.2690 C.3       1 QMS         0.0797
      5 N1         -3.6400   -0.1290    9.0770 N.am      1 QMS        -0.1827
      6 C3         -4.4000   -0.6850    8.1030 C.ar      1 QMS         0.0934
      7 C2         -5.7230   -0.2570    7.9080 C.ar      1 QMS        -0.0424
      8 C4         -3.8470   -1.7050    7.3170 C.ar      1 QMS         0.0738
      9 N2         -2.5570   -2.1500    7.4830 N.ar      1 QMS        -0.2963
     10 C8         -2.0470   -3.1180    6.7060 C.ar      1 QMS         0.0072
     11 C9         -2.8090   -3.7120    5.6910 C.ar      1 QMS        -0.0365
     12 C10        -4.1150   -3.2830    5.4940 C.ar      1 QMS        -0.0420
     13 C5         -4.6430   -2.2790    6.3080 C.ar      1 QMS        -0.0082
     14 C6         -5.9560   -1.8430    6.1210 C.ar      1 QMS        -0.0691
     15 C1         -6.5020   -0.8510    6.9200 C.ar      1 QMS        -0.0794
     16 H1         -4.1409    2.6470    8.4579 H         1 QMS         0.0488
     17 H2         -4.9821    3.1100    9.9760 H         1 QMS         0.0488
     18 H3         -5.7460    1.9405    8.8466 H         1 QMS         0.0488
     19 H4         -2.7220   -0.5051    9.2031 H         1 QMS         0.2232
     20 H5         -6.1358    0.5331    8.5248 H         1 QMS         0.0446
     21 H6         -1.0265   -3.4466    6.8665 H         1 QMS         0.0819
     22 H7         -2.3861   -4.4933    5.0700 H         1 QMS         0.0686
     23 H8         -4.7215   -3.7255    4.7121 H         1 QMS         0.0730
     24 H9         -6.5587   -2.2880    5.3375 H         1 QMS         0.0447
     25 H10        -7.5303   -0.5396    6.7760 H         1 QMS         0.0581
@<TRIPOS>BOND
     1    1    2 2  
     2    2    3 2  
     3    2    4 1  
     4    2    5 am 
     5    5    6 1  
     6    6    7 ar 
     7    6    8 ar 
     8    7   15 ar 
     9    8    9 ar 
    10    8   13 ar 
    11    9   10 ar 
    12   10   11 ar 
    13   11   12 ar 
    14   12   13 ar 
    15   13   14 ar 
    16   14   15 ar 
    17    4   16 1  
    18    4   17 1  
    19    4   18 1  
    20    5   19 1  
    21    7   20 1  
    22   10   21 1  
    23   11   22 1  
    24   12   23 1  
    25   14   24 1  
    26   15   25 1  
@<TRIPOS>SUBSTRUCTURE
     1 QMS         1

