### 
### Created by X-TOOL on Mon Sep 10 21:12:53 2018
### 

@<TRIPOS>MOLECULE
2bbb_ligand
   87    92     1     0     0
SMALL
GAST_HUCK


@<TRIPOS>ATOM
      1 O01        12.8760   22.9320    4.3100 O.3       1 HH1        -0.2582
      2 C02        13.9040   22.3520    4.9250 C.2       1 HH1         0.3203
      3 O03        14.9410   22.9190    5.1390 O.2       1 HH1        -0.3775
      4 NP4        13.6540   21.0860    5.2950 N.am      1 HH1        -0.2550
      5 C05        14.5960   20.3240    6.1320 C.3       1 HH1         0.0791
      6 C06        15.2710   19.2060    5.3240 C.3       1 HH1         0.0813
      7 O07        14.3590   18.3970    4.7680 O.3       1 HH1        -0.3894
      8 C08        16.1560   19.7970    4.2210 C.3       1 HH1         0.0077
      9 C09        17.5450   19.1160    4.1280 C.3       1 HH1         0.1187
     10 C10        18.2830   19.4590    2.8270 C.3       1 HH1         0.0114
     11 C11        19.6540   18.8610    2.6380 C.ar      1 HH1        -0.0418
     12 C12        19.7440   17.5860    1.9400 C.ar      1 HH1        -0.0604
     13 C13        21.0340   16.9620    1.7490 C.ar      1 HH1        -0.0686
     14 C14        22.2070   17.6450    2.2720 C.ar      1 HH1        -0.0687
     15 C15        22.1300   18.9280    2.9710 C.ar      1 HH1        -0.0686
     16 C16        20.8360   19.5640    3.1470 C.ar      1 HH1        -0.0604
     17 C17        18.3860   19.4580    5.3790 C.2       1 HH1         0.1459
     18 O18        18.7810   20.5500    5.6710 O.2       1 HH1        -0.3595
     19 C19        19.4380   18.2280    7.4560 C.3       1 HH1         0.0158
     20 C20        20.9950   18.3710    7.3610 C.3       1 HH1        -0.0235
     21 C49        21.5380   16.4870    5.6560 C.3       1 HH1         0.0487
     22 C22        21.6120   16.9660    7.1320 C.3       1 HH1         0.0101
     23 C23        20.6660   16.2150    7.9700 C.ar      1 HH1        -0.0342
     24 C24        20.9300   14.9410    8.6150 C.ar      1 HH1        -0.0664
     25 C25        19.8520   14.3990    9.4090 C.ar      1 HH1        -0.0756
     26 C26        18.5930   15.0870    9.5510 C.ar      1 HH1        -0.0755
     27 C27        18.3240   16.3550    8.9080 C.ar      1 HH1        -0.0656
     28 C28        19.4150   16.9050    8.1270 C.ar      1 HH1        -0.0325
     29 N29        17.4900   17.6780    4.3150 N.pl3     1 HH1        -0.3112
     30 C30        18.1160   17.0990    5.3810 C.2       1 HH1         0.0207
     31 C35        18.6910   18.2310    6.1250 C.2       1 HH1         0.0230
     32 C36        13.8320   19.7330    7.3350 C.3       1 HH1         0.0063
     33 C37        13.2940   20.8300    8.2290 C.ar      1 HH1        -0.0408
     34 C38        14.2560   21.5300    9.0870 C.ar      1 HH1        -0.0603
     35 C39        13.7800   22.6220    9.9160 C.ar      1 HH1        -0.0686
     36 C40        12.3670   22.9770    9.8370 C.ar      1 HH1        -0.0687
     37 C41        11.3970   22.2490    9.0310 C.ar      1 HH1        -0.0686
     38 C42        11.8710   21.1470    8.2100 C.ar      1 HH1        -0.0603
     39 C44        13.0370   24.3340    3.9770 C.3       1 HH1         0.1134
     40 C45        11.7140   24.9450    3.4900 C.3       1 HH1         0.0782
     41 O46        11.4530   24.3640    2.1830 O.3       1 HH1        -0.3768
     42 C47        12.7080   24.2050    1.5010 C.3       1 HH1         0.0505
     43 C48        13.6830   24.4880    2.6230 C.3       1 HH1         0.0034
     44 C1         21.8780   15.0040    5.4970 C.2       1 HH1         0.1756
     45 N1         23.1320   14.6290    5.8260 N.am      1 HH1        -0.3007
     46 O2         21.0270   14.2140    5.0920 O.2       1 HH1        -0.3971
     47 H1         12.8062   20.6491    4.9945 H         1 HH1         0.1873
     48 H2         15.3744   21.0068    6.5031 H         1 HH1         0.0604
     49 H3         15.9000   18.6145    6.0055 H         1 HH1         0.0617
     50 H4         13.8290   18.0026    5.4507 H         1 HH1         0.2099
     51 H5         16.3037   20.8675    4.4262 H         1 HH1         0.0302
     52 H6         15.6413   19.6762    3.2564 H         1 HH1         0.0302
     53 H7         18.3898   20.5530    2.7849 H         1 HH1         0.0435
     54 H8         17.6550   19.1194    1.9902 H         1 HH1         0.0435
     55 H9         18.8470   17.1066    1.5650 H         1 HH1         0.0557
     56 H10        21.1244   16.0137    1.2316 H         1 HH1         0.0599
     57 H11        23.1790   17.1841    2.1382 H         1 HH1         0.0559
     58 H12        23.0286   19.3987    3.3533 H         1 HH1         0.0599
     59 H13        20.7470   20.5262    3.6382 H         1 HH1         0.0557
     60 H14        19.0061   19.0146    8.0921 H         1 HH1         0.0532
     61 H15        21.3850   18.7982    8.2966 H         1 HH1         0.0327
     62 H16        21.2553   19.0307    6.5202 H         1 HH1         0.0327
     63 H17        22.2492   17.0767    5.0589 H         1 HH1         0.0526
     64 H18        20.5172   16.6556    5.2824 H         1 HH1         0.0526
     65 H19        22.6495   16.9011    7.4915 H         1 HH1         0.0474
     66 H20        21.8787   14.4278    8.5071 H         1 HH1         0.0537
     67 H21        19.9934   13.4491    9.9118 H         1 HH1         0.0540
     68 H22        17.8189   14.6375   10.1624 H         1 HH1         0.0541
     69 H23        17.3698   16.8605    9.0038 H         1 HH1         0.0538
     70 H24        16.9768   17.0921    3.6410 H         1 HH1         0.1834
     71 H25        18.1762   16.0395    5.6254 H         1 HH1         0.1005
     72 H26        14.5149   19.0971    7.9174 H         1 HH1         0.0449
     73 H27        12.9922   19.1266    6.9649 H         1 HH1         0.0449
     74 H28        15.2998   21.2380    9.1016 H         1 HH1         0.0557
     75 H29        14.4542   23.1579   10.5743 H         1 HH1         0.0599
     76 H30        12.0202   23.8295   10.4098 H         1 HH1         0.0559
     77 H31        10.3480   22.5219    9.0429 H         1 HH1         0.0599
     78 H32        11.1830   20.5747    7.5983 H         1 HH1         0.0557
     79 H33        13.5288   24.8849    4.7922 H         1 HH1         0.0671
     80 H34        11.8062   26.0381    3.4093 H         1 HH1         0.0589
     81 H35        10.9001   24.6960    4.1869 H         1 HH1         0.0589
     82 H36        12.8161   24.9286    0.6796 H         1 HH1         0.0561
     83 H37        12.8284   23.1844    1.1088 H         1 HH1         0.0561
     84 H38        14.5258   23.7851    2.5483 H         1 HH1         0.0316
     85 H39        14.0546   25.5183    2.5206 H         1 HH1         0.0316
     86 H40        23.4061   13.6711    5.7405 H         1 HH1         0.1814
     87 H41        23.7871   15.3090    6.1553 H         1 HH1         0.1814
@<TRIPOS>BOND
     1    2    1 1  
     2    1   39 1  
     3    2    3 2  
     4    4    2 am 
     5    5    4 1  
     6    6    5 1  
     7    5   32 1  
     8    6    7 1  
     9    8    6 1  
    10    9    8 1  
    11    9   10 1  
    12   17    9 1  
    13    9   29 1  
    14   10   11 1  
    15   11   12 ar 
    16   11   16 ar 
    17   12   13 ar 
    18   13   14 ar 
    19   15   14 ar 
    20   16   15 ar 
    21   17   18 2  
    22   31   17 1  
    23   19   20 1  
    24   19   28 1  
    25   19   31 1  
    26   20   22 1  
    27   22   21 1  
    28   21   44 1  
    29   22   23 1  
    30   23   24 ar 
    31   23   28 ar 
    32   24   25 ar 
    33   25   26 ar 
    34   26   27 ar 
    35   27   28 ar 
    36   29   30 1  
    37   30   31 2  
    38   32   33 1  
    39   33   34 ar 
    40   33   38 ar 
    41   34   35 ar 
    42   35   36 ar 
    43   36   37 ar 
    44   37   38 ar 
    45   39   40 1  
    46   39   43 1  
    47   40   41 1  
    48   41   42 1  
    49   42   43 1  
    50   44   45 am 
    51   44   46 2  
    52    4   47 1  
    53    5   48 1  
    54    6   49 1  
    55    7   50 1  
    56    8   51 1  
    57    8   52 1  
    58   10   53 1  
    59   10   54 1  
    60   12   55 1  
    61   13   56 1  
    62   14   57 1  
    63   15   58 1  
    64   16   59 1  
    65   19   60 1  
    66   20   61 1  
    67   20   62 1  
    68   21   63 1  
    69   21   64 1  
    70   22   65 1  
    71   24   66 1  
    72   25   67 1  
    73   26   68 1  
    74   27   69 1  
    75   29   70 1  
    76   30   71 1  
    77   32   72 1  
    78   32   73 1  
    79   34   74 1  
    80   35   75 1  
    81   36   76 1  
    82   37   77 1  
    83   38   78 1  
    84   39   79 1  
    85   40   80 1  
    86   40   81 1  
    87   42   82 1  
    88   42   83 1  
    89   43   84 1  
    90   43   85 1  
    91   45   86 1  
    92   45   87 1  
@<TRIPOS>SUBSTRUCTURE
     1 HH1         1

