### 
### Created by X-TOOL on Mon Sep 10 21:12:54 2018
### 

@<TRIPOS>MOLECULE
2bcd_ligand
  112   113     1     0     0
SMALL
GAST_HUCK


@<TRIPOS>ATOM
      1 N1         87.2070   54.4500   23.7770 N.am      1 FGA        -0.2708
      2 C1         86.6930   55.7060   23.1800 C.3       1 FGA         0.0964
      3 C2         85.1660   55.6720   22.8970 C.2       1 FGA         0.0602
      4 O1         84.7940   56.2680   21.8580 O.co2     1 FGA        -0.5666
      5 C3         87.0220   56.9230   24.0930 C.3       1 FGA        -0.0010
      6 C4         86.1940   56.8640   25.3920 C.3       1 FGA         0.0412
      7 C5         86.2170   58.0520   26.3710 C.2       1 FGA         0.1807
      8 O2         86.9360   59.0310   26.1400 O.2       1 FGA        -0.3967
      9 O3         84.3960   55.0890   23.7150 O.co2     1 FGA        -0.5666
     10 N2         85.3580   57.9160   27.4240 N.am      1 MDH        -0.2548
     11 C6         83.9740   58.3600   27.1000 C.3       1 MDH         0.0254
     12 C7         85.5630   57.2160   28.5970 C.3       1 MDH         0.1330
     13 C8         86.6070   56.1050   28.7950 C.2       1 MDH         0.2036
     14 O4         86.2800   55.1450   29.4910 O.2       1 MDH        -0.3944
     15 C9         84.5280   56.6470   29.3770 C.3       1 MDH        -0.0151
     16 C10        83.0900   56.9530   29.8430 C.3       1 MDH        -0.0610
     17 C11        88.3560   53.8380   27.6460 C.2       1 ACB         0.0627
     18 O5         87.7590   54.0900   26.5630 O.co2     1 ACB        -0.5664
     19 O6         88.6510   52.7140   28.0970 O.co2     1 ACB        -0.5664
     20 C12        88.7390   55.0460   28.5100 C.3       1 ACB         0.1136
     21 N3         87.8090   56.1720   28.2650 N.am      1 ACB        -0.2671
     22 C13        90.1860   55.4360   28.2200 C.3       1 ACB         0.0806
     23 C14        90.3290   55.9480   26.7970 C.2       1 ACB         0.1850
     24 O7         89.8420   57.0170   26.4160 O.2       1 ACB        -0.3964
     25 C15        90.7280   56.4510   29.2400 C.3       1 ACB        -0.0416
     26 C16        91.3150   55.2940   24.6180 C.3       1 VAL         0.1332
     27 C17        90.6160   54.2490   23.6720 C.2       1 VAL         0.2044
     28 O8         90.4460   54.4850   22.4720 O.2       1 VAL        -0.3943
     29 C18        92.8570   55.2330   24.7680 C.3       1 VAL        -0.0063
     30 C19        93.5680   56.5320   24.3810 C.3       1 VAL        -0.0584
     31 C20        93.5210   53.9680   24.2400 C.3       1 VAL        -0.0584
     32 N4         90.9810   55.0850   26.0400 N.am      1 VAL        -0.2650
     33 C21        87.4370   53.3660   23.0430 C.2       1 1ZN         0.1851
     34 O9         87.2490   53.3230   21.8390 O.2       1 1ZN        -0.3964
     35 C22        87.9820   52.1350   23.7680 C.3       1 1ZN         0.0788
     36 C23        87.1960   50.8670   23.3390 C.3       1 1ZN        -0.0410
     37 C24        89.5110   52.0460   23.5050 C.3       1 1ZN         0.0878
     38 N5         90.1880   53.1260   24.2470 N.am      1 1ZN        -0.2677
     39 C25        90.0080   50.6620   23.9220 C.2       1 1ZN        -0.0573
     40 C26        90.9220   49.9030   23.1980 C.2       1 1ZN        -0.0805
     41 C27        91.3110   48.6290   23.6400 C.2       1 1ZN        -0.0770
     42 C28        90.6970   48.0150   24.9250 C.3       1 1ZN        -0.0441
     43 C29        92.2440   47.9010   22.8950 C.2       1 1ZN        -0.0901
     44 C30        92.6930   46.4780   23.3160 C.3       1 1ZN         0.0003
     45 C31        94.2370   46.4670   23.3310 C.3       1 1ZN        -0.0531
     46 C32        91.8840   45.3630   22.4850 C.3       1 1ZN         0.0767
     47 O10        92.0840   45.3580   21.0190 O.3       1 1ZN        -0.3755
     48 C33        93.2750   44.9230   20.3980 C.3       1 1ZN         0.0372
     49 C34        91.6500   43.8540   23.0960 C.3       1 1ZN         0.0092
     50 C35        91.2670   42.6350   22.1260 C.ar      1 1ZN        -0.0404
     51 C36        90.5530   42.7320   20.9050 C.ar      1 1ZN        -0.0603
     52 C37        90.2940   41.5890   20.1200 C.ar      1 1ZN        -0.0686
     53 C38        90.6990   40.3160   20.5290 C.ar      1 1ZN        -0.0687
     54 C39        91.3980   40.1860   21.7270 C.ar      1 1ZN        -0.0686
     55 C40        91.6380   41.3290   22.4980 C.ar      1 1ZN        -0.0603
     56 H1         87.3858   54.4174   24.7603 H         1 FGA         0.1875
     57 H2         87.2079   55.8486   22.2185 H         1 FGA         0.0727
     58 H3         86.7857   57.8531   23.5553 H         1 FGA         0.0330
     59 H4         88.0925   56.9071   24.3453 H         1 FGA         0.0330
     60 H5         86.5428   55.9837   25.9519 H         1 FGA         0.0504
     61 H6         85.1452   56.7174   25.0944 H         1 FGA         0.0504
     62 H7         83.9771   58.8998   26.1415 H         1 MDH         0.0488
     63 H8         83.6071   59.0261   27.8947 H         1 MDH         0.0488
     64 H9         83.3155   57.4821   27.0243 H         1 MDH         0.0488
     65 H10        85.9397   58.0398   29.2210 H         1 MDH         0.0802
     66 H11        85.0397   56.4977   30.3392 H         1 MDH         0.0310
     67 H12        84.3917   55.6754   28.8795 H         1 MDH         0.0310
     68 H13        82.7244   56.1269   30.4706 H         1 MDH         0.0232
     69 H14        82.4360   57.0640   28.9656 H         1 MDH         0.0232
     70 H15        83.0840   57.8862   30.4252 H         1 MDH         0.0232
     71 H16        88.6615   54.7603   29.5694 H         1 ACB         0.0755
     72 H17        88.0862   56.9589   27.7137 H         1 ACB         0.1877
     73 H18        90.7970   54.5256   28.3085 H         1 ACB         0.0577
     74 H19        91.7699   56.7006   28.9907 H         1 ACB         0.0258
     75 H20        90.6869   56.0146   30.2489 H         1 ACB         0.0258
     76 H21        90.1151   57.3639   29.2101 H         1 ACB         0.0258
     77 H22        91.0086   56.2946   24.2790 H         1 VAL         0.0802
     78 H23        93.0078   55.1658   25.8555 H         1 VAL         0.0343
     79 H24        94.6531   56.4097   24.5138 H         1 VAL         0.0234
     80 H25        93.2102   57.3510   25.0222 H         1 VAL         0.0234
     81 H26        93.3519   56.7689   23.3288 H         1 VAL         0.0234
     82 H27        92.9453   53.0888   24.5649 H         1 VAL         0.0234
     83 H28        94.5462   53.9006   24.6329 H         1 VAL         0.0234
     84 H29        93.5509   54.0009   23.1409 H         1 VAL         0.0234
     85 H30        91.2701   54.2256   26.4617 H         1 VAL         0.1883
     86 H31        87.8319   52.2686   24.8495 H         1 1ZN         0.0585
     87 H32        86.1269   51.0073   23.5564 H         1 1ZN         0.0259
     88 H33        87.5723   49.9964   23.8961 H         1 1ZN         0.0259
     89 H34        87.3318   50.6988   22.2605 H         1 1ZN         0.0259
     90 H35        89.7043   52.1811   22.4306 H         1 1ZN         0.0763
     91 H36        90.3328   53.0097   25.2296 H         1 1ZN         0.1888
     92 H37        89.6203   50.2415   24.8487 H         1 1ZN         0.0650
     93 H38        91.3412   50.3028   22.2759 H         1 1ZN         0.0406
     94 H39        91.1300   47.0188   25.0984 H         1 1ZN         0.0348
     95 H40        89.6074   47.9252   24.8040 H         1 1ZN         0.0348
     96 H41        90.9182   48.6654   25.7841 H         1 1ZN         0.0348
     97 H42        92.6665   48.3455   21.9951 H         1 1ZN         0.0429
     98 H43        92.3869   46.3303   24.3622 H         1 1ZN         0.0452
     99 H44        94.6036   47.3003   23.9485 H         1 1ZN         0.0254
    100 H45        94.6145   46.5781   22.3038 H         1 1ZN         0.0254
    101 H46        94.5929   45.5149   23.7515 H         1 1ZN         0.0254
    102 H47        90.8660   45.7721   22.5646 H         1 1ZN         0.0643
    103 H48        93.1748   45.0168   19.3066 H         1 1ZN         0.0524
    104 H49        93.4621   43.8712   20.6600 H         1 1ZN         0.0524
    105 H50        94.1160   45.5422   20.7435 H         1 1ZN         0.0524
    106 H51        90.8398   43.9352   23.8355 H         1 1ZN         0.0453
    107 H52        92.5835   43.5712   23.6044 H         1 1ZN         0.0453
    108 H53        90.2003   43.7005   20.5692 H         1 1ZN         0.0557
    109 H54        89.7689   41.7009   19.1783 H         1 1ZN         0.0599
    110 H55        90.4733   39.4448   19.9248 H         1 1ZN         0.0559
    111 H56        91.7503   39.2153   22.0566 H         1 1ZN         0.0599
    112 H57        92.1447   41.1997   23.4475 H         1 1ZN         0.0557
@<TRIPOS>BOND
     1    2    1 1  
     2    1   33 am 
     3    2    3 1  
     4    5    2 1  
     5    3    4 ar 
     6    3    9 ar 
     7    6    5 1  
     8    7    6 1  
     9    7    8 2  
    10   10    7 am 
    11   10   11 1  
    12   12   10 1  
    13   13   12 1  
    14   12   15 1  
    15   13   14 2  
    16   21   13 am 
    17   15   16 1  
    18   17   18 ar 
    19   17   19 ar 
    20   20   17 1  
    21   20   21 1  
    22   22   20 1  
    23   23   22 1  
    24   22   25 1  
    25   23   24 2  
    26   32   23 am 
    27   26   27 1  
    28   26   29 1  
    29   26   32 1  
    30   27   28 2  
    31   27   38 am 
    32   29   30 1  
    33   29   31 1  
    34   33   34 2  
    35   33   35 1  
    36   35   36 1  
    37   35   37 1  
    38   37   38 1  
    39   37   39 1  
    40   39   40 2  
    41   40   41 1  
    42   41   42 1  
    43   41   43 2  
    44   43   44 1  
    45   44   45 1  
    46   44   46 1  
    47   46   47 1  
    48   46   49 1  
    49   47   48 1  
    50   49   50 1  
    51   50   51 ar 
    52   50   55 ar 
    53   51   52 ar 
    54   52   53 ar 
    55   53   54 ar 
    56   54   55 ar 
    57    1   56 1  
    58    2   57 1  
    59    5   58 1  
    60    5   59 1  
    61    6   60 1  
    62    6   61 1  
    63   11   62 1  
    64   11   63 1  
    65   11   64 1  
    66   12   65 1  
    67   15   66 1  
    68   15   67 1  
    69   16   68 1  
    70   16   69 1  
    71   16   70 1  
    72   20   71 1  
    73   21   72 1  
    74   22   73 1  
    75   25   74 1  
    76   25   75 1  
    77   25   76 1  
    78   26   77 1  
    79   29   78 1  
    80   30   79 1  
    81   30   80 1  
    82   30   81 1  
    83   31   82 1  
    84   31   83 1  
    85   31   84 1  
    86   32   85 1  
    87   35   86 1  
    88   36   87 1  
    89   36   88 1  
    90   36   89 1  
    91   37   90 1  
    92   38   91 1  
    93   39   92 1  
    94   40   93 1  
    95   42   94 1  
    96   42   95 1  
    97   42   96 1  
    98   43   97 1  
    99   44   98 1  
   100   45   99 1  
   101   45  100 1  
   102   45  101 1  
   103   46  102 1  
   104   48  103 1  
   105   48  104 1  
   106   48  105 1  
   107   49  106 1  
   108   49  107 1  
   109   51  108 1  
   110   52  109 1  
   111   53  110 1  
   112   54  111 1  
   113   55  112 1  
@<TRIPOS>SUBSTRUCTURE
     1 FGA         1

