### 
### Created by X-TOOL on Mon Sep 10 21:12:53 2018
### 

@<TRIPOS>MOLECULE
2bdj_ligand
   64    68     1     0     0
SMALL
GAST_HUCK


@<TRIPOS>ATOM
      1 N9A        17.0690    2.1400   26.1050 N.pl3     1 HET        -0.2222
      2 C8A        18.1970    1.4350   26.2480 C.2       1 HET         0.1075
      3 N7A        19.1170    2.2550   25.7630 N.2       1 HET        -0.2995
      4 C5A        18.6500    3.5300   25.2770 C.ar      1 HET         0.1024
      5 C6A        19.1210    4.7110   24.7170 C.ar      1 HET         0.1473
      6 N6A        20.4280    4.8380   24.5160 N.pl3     1 HET        -0.2503
      7 N1A        18.2230    5.6640   24.4230 N.ar      1 HET        -0.2654
      8 C2A        16.8940    5.6030   24.6160 C.ar      1 HET         0.0725
      9 N3A        16.3710    4.4830   25.1720 N.ar      1 HET        -0.2730
     10 C4A        17.1600    3.4380   25.5180 C.ar      1 HET         0.1514
     11 C1A        15.7220    1.7180   26.5030 C.3       1 HET         0.0694
     12 CT0        15.0720    2.6080   27.4620 C.3       1 HET         0.0060
     13 CT1        13.6770    2.0520   27.8160 C.ar      1 HET        -0.0493
     14 CT2        13.4000    1.7130   29.1920 C.ar      1 HET        -0.0713
     15 CT3        12.1030    1.1830   29.5460 C.ar      1 HET        -0.0772
     16 CT4        11.1000    0.9980   28.5230 C.ar      1 HET        -0.0403
     17 CT5        11.3660    1.3330   27.1510 C.ar      1 HET         0.0809
     18 CT6        12.6510    1.8590   26.7930 C.ar      1 HET        -0.0324
     19 OH         10.4090    1.1500   26.2080 O.3       1 HET        -0.3349
     20 CR1        21.1460    5.7590   24.0730 C.ar      1 HET         0.0733
     21 CR2        22.5510    5.7410   23.9120 C.ar      1 HET        -0.0280
     22 CR3        23.2150    6.8620   23.4240 C.ar      1 HET        -0.0436
     23 CR4        22.4780    8.0230   23.0910 C.ar      1 HET         0.0341
     24 CR5        21.0780    8.0720   23.2360 C.ar      1 HET        -0.0436
     25 CR6        20.4090    6.9450   23.7270 C.ar      1 HET        -0.0280
     26 PA         23.3330    9.4870   22.4770 P.3       1 HET         0.0340
     27 OA1        24.3630    9.7910   23.5950 O.2       1 HET        -0.5092
     28 CA2        23.9430    8.9390   21.1580 C.3       1 HET         0.0131
     29 CA3        22.3830   10.6100   22.1840 C.3       1 HET         0.0131
     30 CS1        15.9510    6.6860   24.2550 C.3       1 HET         0.0183
     31 CS2        16.2520    7.1620   22.7930 C.3       1 HET        -0.0361
     32 CS3        16.2990    8.6980   22.7830 C.3       1 HET        -0.0503
     33 CS4        16.0220    9.1620   24.2130 C.3       1 HET        -0.0503
     34 CS5        16.0690    7.9310   25.1540 C.3       1 HET        -0.0361
     35 H1         18.3265    0.4355   26.6606 H         1 HET         0.1331
     36 H2         20.9628    3.9988   24.7819 H         1 HET         0.2201
     37 H3         15.7938    0.7178   26.9552 H         1 HET         0.0636
     38 H4         15.0957    1.6681   25.6001 H         1 HET         0.0636
     39 H5         14.9660    3.6094   27.0194 H         1 HET         0.0451
     40 H6         15.6830    2.6731   28.3743 H         1 HET         0.0451
     41 H7         14.1587    1.8549   29.9532 H         1 HET         0.0464
     42 H8         11.8835    0.9251   30.5758 H         1 HET         0.0572
     43 H9         10.1294    0.5994   28.7951 H         1 HET         0.0485
     44 H10        12.8621    2.1142   25.7608 H         1 HET         0.0478
     45 H11         9.6271    0.7971   26.6162 H         1 HET         0.2479
     46 H12        23.1127    4.8504   24.1698 H         1 HET         0.0560
     47 H13        24.2917    6.8460   23.2995 H         1 HET         0.0676
     48 H14        20.5277    8.9678   22.9717 H         1 HET         0.0676
     49 H15        19.3319    6.9659   23.8470 H         1 HET         0.0560
     50 H16        24.5094    9.7375   20.6565 H         1 HET         0.0458
     51 H17        23.1353    8.5917   20.4970 H         1 HET         0.0458
     52 H18        24.6164    8.0997   21.3863 H         1 HET         0.0458
     53 H19        22.9460   11.4792   21.8133 H         1 HET         0.0458
     54 H20        21.8465   10.8858   23.1038 H         1 HET         0.0458
     55 H21        21.6598   10.2886   21.4200 H         1 HET         0.0458
     56 H22        14.9256    6.2930   24.3186 H         1 HET         0.0521
     57 H23        15.4587    6.8102   22.1170 H         1 HET         0.0296
     58 H24        17.2206    6.7586   22.4629 H         1 HET         0.0296
     59 H25        15.5322    9.0952   22.1016 H         1 HET         0.0267
     60 H26        17.2918    9.0436   22.4592 H         1 HET         0.0267
     61 H27        15.0274    9.6291   24.2643 H         1 HET         0.0267
     62 H28        16.7860    9.8915   24.5198 H         1 HET         0.0267
     63 H29        17.0200    7.9116   25.7065 H         1 HET         0.0296
     64 H30        15.2316    7.9656   25.8664 H         1 HET         0.0296
@<TRIPOS>BOND
     1    1    2 1  
     2    1   10 1  
     3    1   11 1  
     4    2    3 2  
     5    3    4 1  
     6    4    5 ar 
     7    4   10 ar 
     8    5    6 1  
     9    5    7 ar 
    10    6   20 1  
    11    7    8 ar 
    12    8    9 ar 
    13    8   30 1  
    14    9   10 ar 
    15   11   12 1  
    16   12   13 1  
    17   13   14 ar 
    18   13   18 ar 
    19   14   15 ar 
    20   15   16 ar 
    21   16   17 ar 
    22   17   18 ar 
    23   17   19 1  
    24   20   21 ar 
    25   20   25 ar 
    26   21   22 ar 
    27   22   23 ar 
    28   23   24 ar 
    29   23   26 1  
    30   24   25 ar 
    31   26   27 2  
    32   26   28 1  
    33   26   29 1  
    34   30   31 1  
    35   30   34 1  
    36   31   32 1  
    37   32   33 1  
    38   33   34 1  
    39    2   35 1  
    40    6   36 1  
    41   11   37 1  
    42   11   38 1  
    43   12   39 1  
    44   12   40 1  
    45   14   41 1  
    46   15   42 1  
    47   16   43 1  
    48   18   44 1  
    49   19   45 1  
    50   21   46 1  
    51   22   47 1  
    52   24   48 1  
    53   25   49 1  
    54   28   50 1  
    55   28   51 1  
    56   28   52 1  
    57   29   53 1  
    58   29   54 1  
    59   29   55 1  
    60   30   56 1  
    61   31   57 1  
    62   31   58 1  
    63   32   59 1  
    64   32   60 1  
    65   33   61 1  
    66   33   62 1  
    67   34   63 1  
    68   34   64 1  
@<TRIPOS>SUBSTRUCTURE
     1 HET         1

