### 
### Created by X-TOOL on Mon Sep 10 21:12:54 2018
### 

@<TRIPOS>MOLECULE
2bdl_ligand
   80    82     1     0     0
SMALL
GAST_HUCK


@<TRIPOS>ATOM
      1 C1         73.6880   93.3360  163.1710 C.3       1 4PR        -0.0653
      2 C2         74.8140   94.2470  162.7650 C.3       1 4PR        -0.0558
      3 C3         75.4970   94.7630  164.0060 C.3       1 4PR        -0.0510
      4 C4         76.9670   94.4400  163.9220 C.3       1 4PR        -0.0253
      5 C5         77.7540   95.2610  164.9210 C.3       1 4PR         0.0869
      6 N1         77.8600   96.5960  164.3880 N.am      1 4PR        -0.2547
      7 C6         77.3860   97.6910  165.0670 C.2       1 4PR         0.3203
      8 O1         76.7810   97.6850  166.1280 O.2       1 4PR        -0.3775
      9 O2         77.7080   98.8080  164.3680 O.3       1 4PR        -0.2580
     10 C7         77.2310  100.0130  164.9500 C.3       1 4PR         0.1150
     11 C8         75.8370  100.2550  164.4240 C.3       1 4PR         0.0655
     12 N2         76.0300  101.1070  163.2860 N.am      1 4PR        -0.2533
     13 C9         77.3380  101.7040  163.2270 C.3       1 4PR         0.0424
     14 C10        78.0740  101.1610  164.4330 C.3       1 4PR         0.0176
     15 C11        78.2030  102.2490  165.4760 C.3       1 4PR        -0.0552
     16 C12        79.4580  100.6890  164.0530 C.3       1 4PR        -0.0552
     17 C13        74.9900  101.4140  162.4370 C.2       1 4PR         0.2757
     18 O3         73.8350  101.0580  162.6400 O.2       1 4PR        -0.3961
     19 N3         75.3870  102.1560  161.3500 N.am      1 4PR        -0.2437
     20 C14        74.7040  102.0470  160.1560 C.2       1 4PR         0.0911
     21 C15        74.6450  100.9520  159.2600 C.2       1 4PR         0.0365
     22 C16        75.3000   99.6420  159.3680 C.3       1 4PR        -0.0289
     23 N4         73.8750  101.2310  158.2020 N.2       1 4PR        -0.1798
     24 O4         73.4180  102.5330  158.4030 O.3       1 4PR        -0.1983
     25 C17        73.9200  103.0140  159.5740 C.2       1 4PR         0.1389
     26 C18        73.5430  104.3850  159.9520 C.3       1 4PR        -0.0025
     27 C19        79.1750   94.7640  164.9490 C.3       1 4PR         0.1663
     28 O5         80.0290   95.1870  163.9000 O.3       1 4PR        -0.3691
     29 C20        79.2640   93.2730  165.1390 C.2       1 4PR         0.2093
     30 O6         78.8120   92.7640  166.1540 O.2       1 4PR        -0.3940
     31 N5         79.8630   92.6270  164.0760 N.am      1 4PR        -0.2707
     32 C21        80.0080   91.1840  164.0450 C.3       1 4PR         0.0727
     33 C22        80.8940   90.7620  162.8960 C.3       1 4PR        -0.0319
     34 C23        78.7020   90.4690  163.9270 C.ar      1 4PR        -0.0183
     35 C24        78.5010   89.2980  164.6270 C.ar      1 4PR        -0.0582
     36 C25        77.3040   88.6240  164.5300 C.ar      1 4PR        -0.0685
     37 C26        76.2970   89.1200  163.7330 C.ar      1 4PR        -0.0687
     38 C27        76.4930   90.2870  163.0320 C.ar      1 4PR        -0.0685
     39 C28        77.6910   90.9590  163.1270 C.ar      1 4PR        -0.0582
     40 H1         73.1830   92.9540  162.2715 H         1 4PR         0.0230
     41 H2         72.9677   93.8950  163.7864 H         1 4PR         0.0230
     42 H3         74.0898   92.4927  163.7519 H         1 4PR         0.0230
     43 H4         74.4144   95.0920  162.1852 H         1 4PR         0.0263
     44 H5         75.5365   93.6898  162.1507 H         1 4PR         0.0263
     45 H6         75.0629   94.2810  164.8944 H         1 4PR         0.0266
     46 H7         75.3614   95.8523  164.0767 H         1 4PR         0.0266
     47 H8         77.3282   94.6631  162.9072 H         1 4PR         0.0290
     48 H9         77.1146   93.3714  164.1371 H         1 4PR         0.0290
     49 H10        77.2875   95.2408  165.9170 H         1 4PR         0.0607
     50 H11        78.2922   96.7287  163.4960 H         1 4PR         0.1873
     51 H12        77.2491   99.9597  166.0486 H         1 4PR         0.0674
     52 H13        75.2154  100.7531  165.1826 H         1 4PR         0.0549
     53 H14        75.3633   99.3081  164.1258 H         1 4PR         0.0549
     54 H15        77.2649  102.8003  163.2806 H         1 4PR         0.0526
     55 H16        77.8526  101.4157  162.2985 H         1 4PR         0.0526
     56 H17        78.7378  101.8549  166.3527 H         1 4PR         0.0237
     57 H18        77.2011  102.5870  165.7792 H         1 4PR         0.0237
     58 H19        78.7639  103.0962  165.0547 H         1 4PR         0.0237
     59 H20        79.3796   99.8966  163.2941 H         1 4PR         0.0237
     60 H21        79.9683  100.2943  164.9439 H         1 4PR         0.0237
     61 H22        80.0337  101.5325  163.6442 H         1 4PR         0.0237
     62 H23        76.1697  102.7739  161.4245 H         1 4PR         0.2079
     63 H24        75.0382   99.0280  158.4937 H         1 4PR         0.0362
     64 H25        74.9617   99.1373  160.2850 H         1 4PR         0.0362
     65 H26        76.3907   99.7794  159.4062 H         1 4PR         0.0362
     66 H27        72.8838  104.8098  159.1807 H         1 4PR         0.0395
     67 H28        74.4486  105.0030  160.0412 H         1 4PR         0.0395
     68 H29        73.0147  104.3673  160.9166 H         1 4PR         0.0395
     69 H30        79.6044   95.2077  165.8593 H         1 4PR         0.0861
     70 H31        80.8926   94.8116  164.0254 H         1 4PR         0.2134
     71 H32        80.2057   93.1677  163.3077 H         1 4PR         0.1881
     72 H33        80.4839   90.8746  164.9872 H         1 4PR         0.0716
     73 H34        80.9906   89.6663  162.8907 H         1 4PR         0.0274
     74 H35        81.8885   91.2171  163.0135 H         1 4PR         0.0274
     75 H36        80.4479   91.0953  161.9474 H         1 4PR         0.0274
     76 H37        79.2904   88.9055  165.2578 H         1 4PR         0.0557
     77 H38        77.1547   87.7027  165.0813 H         1 4PR         0.0599
     78 H39        75.3529   88.5926  163.6582 H         1 4PR         0.0559
     79 H40        75.7020   90.6789  162.4029 H         1 4PR         0.0599
     80 H41        77.8402   91.8772  162.5706 H         1 4PR         0.0557
@<TRIPOS>BOND
     1    1    2 1  
     2    2    3 1  
     3    3    4 1  
     4    4    5 1  
     5    5    6 1  
     6    5   27 1  
     7    6    7 am 
     8    7    8 2  
     9    7    9 1  
    10    9   10 1  
    11   10   11 1  
    12   10   14 1  
    13   11   12 1  
    14   12   13 1  
    15   12   17 am 
    16   13   14 1  
    17   14   15 1  
    18   14   16 1  
    19   17   18 2  
    20   17   19 am 
    21   19   20 1  
    22   20   21 1  
    23   20   25 2  
    24   21   22 1  
    25   21   23 2  
    26   23   24 1  
    27   24   25 1  
    28   25   26 1  
    29   27   28 1  
    30   27   29 1  
    31   29   30 2  
    32   29   31 am 
    33   31   32 1  
    34   32   33 1  
    35   32   34 1  
    36   34   35 ar 
    37   34   39 ar 
    38   35   36 ar 
    39   36   37 ar 
    40   37   38 ar 
    41   38   39 ar 
    42    1   40 1  
    43    1   41 1  
    44    1   42 1  
    45    2   43 1  
    46    2   44 1  
    47    3   45 1  
    48    3   46 1  
    49    4   47 1  
    50    4   48 1  
    51    5   49 1  
    52    6   50 1  
    53   10   51 1  
    54   11   52 1  
    55   11   53 1  
    56   13   54 1  
    57   13   55 1  
    58   15   56 1  
    59   15   57 1  
    60   15   58 1  
    61   16   59 1  
    62   16   60 1  
    63   16   61 1  
    64   19   62 1  
    65   22   63 1  
    66   22   64 1  
    67   22   65 1  
    68   26   66 1  
    69   26   67 1  
    70   26   68 1  
    71   27   69 1  
    72   28   70 1  
    73   31   71 1  
    74   32   72 1  
    75   33   73 1  
    76   33   74 1  
    77   33   75 1  
    78   35   76 1  
    79   36   77 1  
    80   37   78 1  
    81   38   79 1  
    82   39   80 1  
@<TRIPOS>SUBSTRUCTURE
     1 4PR         1

