### 
### Created by X-TOOL on Mon Sep 10 21:12:54 2018
### 

@<TRIPOS>MOLECULE
2bdy_ligand
   63    66     1     0     0
SMALL
GAST_HUCK


@<TRIPOS>ATOM
      1 C1         20.7730  -15.7630   25.1970 C.ar      1 UNB         0.0092
      2 C2         19.7560  -14.7970   25.2590 C.ar      1 UNB         0.1210
      3 C3         22.0820  -15.3890   25.5670 C.ar      1 UNB        -0.0160
      4 C4         20.4800  -17.0900   24.7620 C.ar      1 UNB        -0.0521
      5 S5         18.1500  -15.2810   24.7380 S.o2      1 UNB         0.0868
      6 C6         20.0510  -13.5120   25.6510 C.ar      1 UNB        -0.0340
      7 C7         22.3460  -14.0680   25.9880 C.ar      1 UNB        -0.0539
      8 C8         23.0970  -16.3770   25.5030 C.ar      1 UNB        -0.0540
      9 C9         21.4850  -18.0050   24.7050 C.ar      1 UNB        -0.0611
     10 N10        18.2180  -15.5590   23.1080 N.am      1 UNB        -0.1954
     11 O11        17.7240  -16.5010   25.3350 O.2       1 UNB        -0.1453
     12 O12        17.3620  -14.0810   24.8500 O.2       1 UNB        -0.1453
     13 C13        21.3500  -13.1390   26.0200 C.ar      1 UNB        -0.0593
     14 C14        22.7840  -17.6480   25.0760 C.ar      1 UNB        -0.0612
     15 C15        18.9290  -14.6790   22.2620 C.ar      1 UNB         0.0791
     16 C16        18.3360  -13.4950   21.8220 C.ar      1 UNB         0.1021
     17 C17        20.2390  -14.9730   21.8500 C.ar      1 UNB        -0.0660
     18 C18        19.0350  -12.6410   20.9820 C.ar      1 UNB        -0.0083
     19 O19        17.0700  -13.1930   22.2140 O.3       1 UNB        -0.3466
     20 C20        20.9530  -14.1300   21.0190 C.ar      1 UNB        -0.0926
     21 C21        20.3370  -12.9520   20.5700 C.ar      1 UNB        -0.0665
     22 C22        18.3560  -11.3540   20.5110 C.3       1 UNB         0.0624
     23 C23        21.1040  -12.0310   19.6640 C.3       1 UNB        -0.0435
     24 C24        17.0430  -11.6320   19.8090 C.2       1 UNB         0.1858
     25 N25        16.0100  -10.8010   20.0620 N.am      1 UNB        -0.2744
     26 O26        16.9330  -12.5650   19.0390 O.2       1 UNB        -0.3947
     27 C27        14.6970  -10.9980   19.4510 C.3       1 UNB         0.0645
     28 C28        13.7410  -10.8880   20.5970 C.ar      1 UNB        -0.0210
     29 C29        13.2000   -9.6630   20.9560 C.ar      1 UNB        -0.0584
     30 C30        13.4110  -12.0140   21.3230 C.ar      1 UNB        -0.0584
     31 C31        12.3390   -9.5790   22.0380 C.ar      1 UNB        -0.0633
     32 C32        12.5430  -11.9540   22.3940 C.ar      1 UNB        -0.0633
     33 C33        11.9680  -10.7180   22.7430 C.ar      1 UNB         0.0188
     34 C34        11.0290  -10.6170   23.8790 C.cat     1 UNB         0.2318
     35 N35        10.3170  -11.7390   24.2800 N.pl3     1 UNB        -0.2729
     36 N36        10.8500   -9.4770   24.4980 N.pl3     1 UNB        -0.2729
     37 H1         19.4700  -17.3653   24.4807 H         1 UNB         0.0624
     38 H2         19.2602  -12.7709   25.6750 H         1 UNB         0.0637
     39 H3         23.3498  -13.7902   26.2884 H         1 UNB         0.0624
     40 H4         24.1138  -16.1330   25.7887 H         1 UNB         0.0624
     41 H5         21.2773  -19.0150   24.3705 H         1 UNB         0.0618
     42 H6         17.7530  -16.3546   22.7196 H         1 UNB         0.2094
     43 H7         21.5606  -12.1212   26.3280 H         1 UNB         0.0618
     44 H8         23.5688  -18.3941   25.0261 H         1 UNB         0.0618
     45 H9         20.7047  -15.8893   22.1943 H         1 UNB         0.0380
     46 H10        16.7433  -13.8804   22.7827 H         1 UNB         0.2399
     47 H11        21.9663  -14.3736   20.7209 H         1 UNB         0.0407
     48 H12        19.0281  -10.8319   19.8141 H         1 UNB         0.0617
     49 H13        18.1636  -10.7134   21.3842 H         1 UNB         0.0617
     50 H14        20.4786  -11.1627   19.4092 H         1 UNB         0.0345
     51 H15        21.3793  -12.5672   18.7438 H         1 UNB         0.0345
     52 H16        22.0156  -11.6887   20.1756 H         1 UNB         0.0345
     53 H17        16.1466  -10.0300   20.6840 H         1 UNB         0.1879
     54 H18        14.6301  -11.9901   18.9805 H         1 UNB         0.0683
     55 H19        14.4958  -10.2211   18.6987 H         1 UNB         0.0683
     56 H20        13.4503   -8.7724   20.3910 H         1 UNB         0.0557
     57 H21        13.8439  -12.9683   21.0455 H         1 UNB         0.0557
     58 H22        11.9498   -8.6130   22.3386 H         1 UNB         0.0599
     59 H23        12.3069  -12.8481   22.9596 H         1 UNB         0.0599
     60 H24         9.6604  -11.6767   25.0711 H         1 UNB         0.3180
     61 H25        10.4452  -12.6339   23.7864 H         1 UNB         0.3180
     62 H26        11.3767   -8.6425   24.2029 H         1 UNB         0.3180
     63 H27        10.1825   -9.4148   25.2799 H         1 UNB         0.3180
@<TRIPOS>BOND
     1    1    2 ar 
     2    1    3 ar 
     3    1    4 ar 
     4    2    5 1  
     5    2    6 ar 
     6    3    7 ar 
     7    3    8 ar 
     8    4    9 ar 
     9    5   10 am 
    10    5   11 2  
    11    5   12 2  
    12    6   13 ar 
    13    7   13 ar 
    14    8   14 ar 
    15    9   14 ar 
    16   10   15 1  
    17   15   16 ar 
    18   15   17 ar 
    19   16   18 ar 
    20   16   19 1  
    21   17   20 ar 
    22   18   21 ar 
    23   18   22 1  
    24   20   21 ar 
    25   21   23 1  
    26   22   24 1  
    27   24   25 am 
    28   24   26 2  
    29   25   27 1  
    30   27   28 1  
    31   28   29 ar 
    32   28   30 ar 
    33   29   31 ar 
    34   30   32 ar 
    35   31   33 ar 
    36   32   33 ar 
    37   33   34 1  
    38   34   35 ar 
    39   34   36 ar 
    40    4   37 1  
    41    6   38 1  
    42    7   39 1  
    43    8   40 1  
    44    9   41 1  
    45   10   42 1  
    46   13   43 1  
    47   14   44 1  
    48   17   45 1  
    49   19   46 1  
    50   20   47 1  
    51   22   48 1  
    52   22   49 1  
    53   23   50 1  
    54   23   51 1  
    55   23   52 1  
    56   25   53 1  
    57   27   54 1  
    58   27   55 1  
    59   29   56 1  
    60   30   57 1  
    61   31   58 1  
    62   32   59 1  
    63   35   60 1  
    64   35   61 1  
    65   36   62 1  
    66   36   63 1  
@<TRIPOS>SUBSTRUCTURE
     1 UNB         1

