### 
### Created by X-TOOL on Mon Sep 10 21:12:53 2018
### 

@<TRIPOS>MOLECULE
2be2_ligand
   46    48     1     0     0
SMALL
GAST_HUCK


@<TRIPOS>ATOM
      1 C1         50.0430  -24.8530   26.3340 C.ar      1 R22         0.1065
      2 C2'        49.3600  -25.1490   25.1100 C.ar      1 R22        -0.0337
      3 C3         49.4690  -24.2870   23.9850 C.ar      1 R22        -0.0601
      4 C4         50.2670  -23.1040   24.0700 C.ar      1 R22        -0.0696
      5 C5         50.9590  -22.7960   25.2790 C.ar      1 R22        -0.0601
      6 C6         50.8530  -23.6580   26.3950 C.ar      1 R22        -0.0337
      7 O7         49.8920  -25.7870   27.3890 O.3       1 R22        -0.2612
      8 C8         48.7290  -24.6270   22.7140 C.3       1 R22        -0.0349
      9 C9         51.7990  -21.5620   25.3650 C.3       1 R22        -0.0349
     10 N1         52.8340  -25.8690   30.3150 N.am      1 R22        -0.2264
     11 C2         51.6990  -25.1870   30.6560 C.2       1 R22         0.1766
     12 C3         50.6190  -25.1700   29.6130 C.2       1 R22         0.0623
     13 C4         50.8530  -25.8090   28.4020 C.2       1 R22         0.1075
     14 C5         52.0430  -26.4910   28.1310 C.2       1 R22         0.0263
     15 C6         53.0060  -26.5300   29.0760 C.2       1 R22         0.0828
     16 C7         54.3560  -27.2340   28.9890 C.3       1 R22         0.0070
     17 O8         51.6780  -24.6730   31.7770 O.2       1 R22        -0.4392
     18 I9         48.8480  -24.2680   30.0000 I         1 R22        -0.0971
     19 C10        52.3150  -27.2160   26.8530 C.3       1 R22         0.0166
     20 S11        50.9560  -27.8230   25.7860 S.3       1 R22        -0.1396
     21 C12        51.3110  -29.5310   25.4540 C.3       1 R22         0.0581
     22 C13        51.1490  -30.3590   26.6820 C.2       1 R22         0.1050
     23 O14        50.6650  -31.5950   26.4330 O.3       1 R22        -0.2680
     24 C15        50.5870  -32.2040   27.6500 C.2       1 R22         0.0669
     25 C16        51.0170  -31.3780   28.6480 C.2       1 R22        -0.0808
     26 C17        51.3830  -30.1690   28.0130 C.2       1 R22        -0.0698
     27 H1         48.7513  -26.0433   25.0407 H         1 R22         0.0437
     28 H2         50.3463  -22.4411   23.2160 H         1 R22         0.0412
     29 H3         51.3863  -23.4192   27.3080 H         1 R22         0.0437
     30 H4         48.1777  -25.5689   22.8515 H         1 R22         0.0388
     31 H5         49.4486  -24.7404   21.8898 H         1 R22         0.0388
     32 H6         48.0214  -23.8196   22.4745 H         1 R22         0.0388
     33 H7         51.7585  -21.0234   24.4067 H         1 R22         0.0388
     34 H8         52.8399  -21.8416   25.5848 H         1 R22         0.0388
     35 H9         51.4165  -20.9132   26.1667 H         1 R22         0.0388
     36 H10        53.5828  -25.9024   30.9770 H         1 R22         0.2505
     37 H11        54.4471  -27.7329   28.0129 H         1 R22         0.0479
     38 H12        54.4318  -27.9823   29.7917 H         1 R22         0.0479
     39 H13        55.1629  -26.4947   29.0996 H         1 R22         0.0479
     40 H14        52.9173  -28.0972   27.1188 H         1 R22         0.0435
     41 H15        52.9156  -26.5350   26.2322 H         1 R22         0.0435
     42 H16        52.3468  -29.6198   25.0945 H         1 R22         0.0569
     43 H17        50.6213  -29.8977   24.6795 H         1 R22         0.0569
     44 H18        50.2275  -33.2200   27.8062 H         1 R22         0.0854
     45 H19        51.0676  -31.6034   29.7122 H         1 R22         0.0296
     46 H20        51.7721  -29.2700   28.4887 H         1 R22         0.0219
@<TRIPOS>BOND
     1    1    2 ar 
     2    1    6 ar 
     3    7    1 1  
     4    2    3 ar 
     5    3    4 ar 
     6    3    8 1  
     7    5    4 ar 
     8    6    5 ar 
     9    5    9 1  
    10   13    7 1  
    11   11   10 am 
    12   10   15 1  
    13   12   11 1  
    14   11   17 2  
    15   12   13 2  
    16   12   18 1  
    17   13   14 1  
    18   14   15 2  
    19   14   19 1  
    20   15   16 1  
    21   19   20 1  
    22   20   21 1  
    23   21   22 1  
    24   22   23 1  
    25   22   26 2  
    26   23   24 1  
    27   24   25 2  
    28   25   26 1  
    29    2   27 1  
    30    4   28 1  
    31    6   29 1  
    32    8   30 1  
    33    8   31 1  
    34    8   32 1  
    35    9   33 1  
    36    9   34 1  
    37    9   35 1  
    38   10   36 1  
    39   16   37 1  
    40   16   38 1  
    41   16   39 1  
    42   19   40 1  
    43   19   41 1  
    44   21   42 1  
    45   21   43 1  
    46   24   44 1  
    47   25   45 1  
    48   26   46 1  
@<TRIPOS>SUBSTRUCTURE
     1 R22         1

