### 
### Created by X-TOOL on Mon Sep 10 21:12:54 2018
### 

@<TRIPOS>MOLECULE
2bed_ligand
   62    66     1     0     0
SMALL
GAST_HUCK


@<TRIPOS>ATOM
      1 C1        185.9370  127.8630   31.8270 C.ar      1 736        -0.0085
      2 N2        186.8300  128.8640   31.6440 N.ar      1 736        -0.3065
      3 C3        188.1260  128.7740   32.0570 C.ar      1 736         0.0385
      4 C4        188.6020  127.5960   32.7160 C.ar      1 736        -0.0190
      5 C5        187.6780  126.5400   32.9080 C.ar      1 736        -0.0560
      6 C6        186.3340  126.6630   32.4680 C.ar      1 736        -0.0530
      7 C9        189.0210  129.9510   31.7940 C.3       1 736         0.0443
      8 C10       190.2490  129.6520   30.9710 C.ar      1 736        -0.0110
      9 C11       191.2500  128.6940   31.3930 C.ar      1 736         0.0185
     10 C12       191.1640  127.9720   32.7110 C.2       1 736         0.0527
     11 C13       190.0000  127.4620   33.2390 C.2       1 736        -0.0465
     12 C18       190.4210  130.3520   29.7390 C.ar      1 736        -0.0530
     13 C19       191.5670  130.1200   28.9280 C.ar      1 736        -0.0516
     14 C20       192.5560  129.1840   29.3450 C.ar      1 736         0.0369
     15 C21       192.3910  128.4680   30.5630 C.ar      1 736        -0.0391
     16 C24       189.3540  130.7120   33.1190 C.3       1 736        -0.0146
     17 C25       190.2730  131.9090   32.8760 C.3       1 736        -0.0292
     18 C26       190.4450  132.7760   34.1040 C.3       1 736         0.0298
     19 N27       189.1180  133.1940   34.5830 N.am      1 736        -0.2387
     20 C28       188.3360  132.0350   35.0310 C.3       1 736         0.0298
     21 C29       188.0760  131.1290   33.8480 C.3       1 736        -0.0292
     22 CL40      193.9760  128.9400   28.3890 Cl        1 736        -0.0760
     23 S1        188.9180  134.7300   35.3610 S.o2      1 736         0.0385
     24 N1        192.4340  127.7980   33.4510 N.pl3     1 736        -0.2912
     25 C2        192.9810  129.0700   33.9340 C.3       1 736         0.0709
     26 C7        192.4000  126.8280   34.5540 C.3       1 736         0.0709
     27 C8        194.4120  128.8420   34.3890 C.3       1 736        -0.0125
     28 C14       193.8200  126.5750   35.0230 C.3       1 736        -0.0125
     29 N3        194.4340  127.8390   35.4650 N.4       1 736         0.2299
     30 O1        187.5460  134.7480   35.7770 O.2       1 736        -0.1556
     31 C15       189.1910  136.0080   34.1470 C.3       1 736         0.0734
     32 O2        189.9580  134.7710   36.3450 O.2       1 736        -0.1556
     33 H1        184.9159  127.9797   31.4824 H         1 736         0.0705
     34 H2        188.0007  125.6276   33.3964 H         1 736         0.0617
     35 H3        185.6262  125.8560   32.6191 H         1 736         0.0623
     36 H4        188.4249  130.6460   31.1844 H         1 736         0.0636
     37 H5        190.1090  126.8858   34.1567 H         1 736         0.0308
     38 H6        189.6718  131.0668   29.4183 H         1 736         0.0564
     39 H7        191.6871  130.6555   27.9932 H         1 736         0.0629
     40 H8        193.1386  127.7434   30.8647 H         1 736         0.0635
     41 H9        189.8944  130.0120   33.7731 H         1 736         0.0348
     42 H10       189.8447  132.5228   32.0699 H         1 736         0.0287
     43 H11       191.2610  131.5365   32.5678 H         1 736         0.0287
     44 H12       191.0416  133.6640   33.8483 H         1 736         0.0478
     45 H13       190.9580  132.2038   34.8910 H         1 736         0.0478
     46 H14       187.3786  132.3764   35.4514 H         1 736         0.0478
     47 H15       188.8988  131.4852   35.7997 H         1 736         0.0478
     48 H16       187.5660  130.2228   34.2067 H         1 736         0.0287
     49 H17       187.4249  131.6593   33.1375 H         1 736         0.0287
     50 H18       192.3779  129.4358   34.7780 H         1 736         0.0579
     51 H19       192.9643  129.8123   33.1224 H         1 736         0.0579
     52 H20       191.9522  125.8859   34.2048 H         1 736         0.0579
     53 H21       191.8025  127.2324   35.3843 H         1 736         0.0579
     54 H22       194.8328  129.7876   34.7614 H         1 736         0.0834
     55 H23       195.0129  128.4821   33.5408 H         1 736         0.0834
     56 H24       194.4083  126.1538   34.1945 H         1 736         0.0834
     57 H25       193.8059  125.8634   35.8617 H         1 736         0.0834
     58 H26       193.9221  128.1945   36.2572 H         1 736         0.2015
     59 H27       195.3898  127.6647   35.7333 H         1 736         0.2015
     60 H28       189.0691  136.9941   34.6190 H         1 736         0.0482
     61 H29       188.4621  135.8998   33.3304 H         1 736         0.0482
     62 H30       190.2102  135.9184   33.7431 H         1 736         0.0482
@<TRIPOS>BOND
     1    1    2 ar 
     2    1    6 ar 
     3    2    3 ar 
     4    3    4 ar 
     5    3    7 1  
     6    4    5 ar 
     7    4   11 1  
     8    5    6 ar 
     9    7    8 1  
    10    7   16 1  
    11    8    9 ar 
    12    8   12 ar 
    13    9   10 1  
    14    9   15 ar 
    15   10   11 2  
    16   10   24 1  
    17   12   13 ar 
    18   13   14 ar 
    19   14   15 ar 
    20   14   22 1  
    21   16   17 1  
    22   16   21 1  
    23   17   18 1  
    24   18   19 1  
    25   19   20 1  
    26   19   23 am 
    27   20   21 1  
    28   23   30 2  
    29   23   31 1  
    30   23   32 2  
    31   24   25 1  
    32   24   26 1  
    33   25   27 1  
    34   26   28 1  
    35   27   29 1  
    36   28   29 1  
    37    1   33 1  
    38    5   34 1  
    39    6   35 1  
    40    7   36 1  
    41   11   37 1  
    42   12   38 1  
    43   13   39 1  
    44   15   40 1  
    45   16   41 1  
    46   17   42 1  
    47   17   43 1  
    48   18   44 1  
    49   18   45 1  
    50   20   46 1  
    51   20   47 1  
    52   21   48 1  
    53   21   49 1  
    54   25   50 1  
    55   25   51 1  
    56   26   52 1  
    57   26   53 1  
    58   27   54 1  
    59   27   55 1  
    60   28   56 1  
    61   28   57 1  
    62   29   58 1  
    63   29   59 1  
    64   31   60 1  
    65   31   61 1  
    66   31   62 1  
@<TRIPOS>SUBSTRUCTURE
     1 736         1

