### 
### Created by X-TOOL on Mon Sep 10 21:12:52 2018
### 

@<TRIPOS>MOLECULE
2bgd_ligand
   36    38     1     0     0
SMALL
GAST_HUCK


@<TRIPOS>ATOM
      1 O          -4.4220   58.9030    5.3260 O.2       1 T1D        -0.3930
      2 C          -3.4820   59.6520    5.1790 C.2       1 T1D         0.2226
      3 N          -2.5700   59.9500    6.1100 N.am      1 T1D        -0.1349
      4 S          -1.4680   60.9650    5.5480 S.o2      1 T1D         0.1634
      5 O1         -0.0620   60.2920    5.4420 O.2       1 T1D        -0.1249
      6 O2         -1.4160   62.3040    6.3200 O.2       1 T1D        -0.1249
      7 N1         -2.0430   61.1680    4.1160 N.am      1 T1D        -0.1410
      8 C1         -3.2370   60.3670    3.8620 C.3       1 T1D         0.1454
      9 C2         -1.4980   61.9590    3.0680 C.ar      1 T1D         0.1011
     10 C3         -1.7970   63.3200    2.8900 C.ar      1 T1D        -0.0451
     11 C4         -1.2190   64.0460    1.8200 C.ar      1 T1D        -0.0445
     12 C5         -0.3720   63.3760    0.9220 C.ar      1 T1D        -0.0789
     13 C6         -0.0780   62.0220    1.0950 C.ar      1 T1D        -0.0458
     14 C7         -0.6420   61.3190    2.1700 C.ar      1 T1D         0.1105
     15 O3         -0.3810   59.9920    2.3600 O.3       1 T1D        -0.3274
     16 C8          0.3260   59.1890    1.4010 C.3       1 T1D         0.0564
     17 C9         -1.4800   65.4040    1.5810 C.ar      1 T1D        -0.0289
     18 C10        -2.6940   65.9740    1.9990 C.ar      1 T1D        -0.0569
     19 C11        -2.9850   67.3250    1.7420 C.ar      1 T1D        -0.0629
     20 C12        -2.0730   68.1090    1.0350 C.ar      1 T1D        -0.0632
     21 C13        -0.8570   67.5330    0.6020 C.ar      1 T1D        -0.0629
     22 C14        -0.5590   66.1920    0.8690 C.ar      1 T1D        -0.0569
     23 H1         -2.5758   59.5845    7.0408 H         1 T1D         0.2164
     24 H2         -4.0909   61.0091    3.6002 H         1 T1D         0.0793
     25 H3         -3.0590   59.6449    3.0515 H         1 T1D         0.0793
     26 H4         -2.4738   63.8173    3.5753 H         1 T1D         0.0447
     27 H5          0.0579   63.9157    0.0859 H         1 T1D         0.0460
     28 H6          0.5836   61.5160    0.4012 H         1 T1D         0.0497
     29 H7          0.4116   58.1589    1.7773 H         1 T1D         0.0573
     30 H8          1.3314   59.6064    1.2433 H         1 T1D         0.0573
     31 H9         -0.2237   59.1867    0.4482 H         1 T1D         0.0573
     32 H10        -3.4169   65.3631    2.5274 H         1 T1D         0.0610
     33 H11        -3.9157   67.7566    2.0923 H         1 T1D         0.0614
     34 H12        -2.2944   69.1482    0.8201 H         1 T1D         0.0605
     35 H13        -0.1443   68.1393    0.0547 H         1 T1D         0.0614
     36 H14         0.3767   65.7633    0.5287 H         1 T1D         0.0610
@<TRIPOS>BOND
     1    1    2 2  
     2    2    3 am 
     3    2    8 1  
     4    3    4 am 
     5    4    5 2  
     6    4    6 2  
     7    4    7 am 
     8    7    8 1  
     9    7    9 1  
    10    9   10 ar 
    11    9   14 ar 
    12   10   11 ar 
    13   11   12 ar 
    14   11   17 1  
    15   12   13 ar 
    16   13   14 ar 
    17   14   15 1  
    18   15   16 1  
    19   17   18 ar 
    20   17   22 ar 
    21   18   19 ar 
    22   19   20 ar 
    23   20   21 ar 
    24   21   22 ar 
    25    3   23 1  
    26    8   24 1  
    27    8   25 1  
    28   10   26 1  
    29   12   27 1  
    30   13   28 1  
    31   16   29 1  
    32   16   30 1  
    33   16   31 1  
    34   18   32 1  
    35   19   33 1  
    36   20   34 1  
    37   21   35 1  
    38   22   36 1  
@<TRIPOS>SUBSTRUCTURE
     1 T1D         1

