### 
### Created by X-TOOL on Mon Sep 10 21:12:53 2018
### 

@<TRIPOS>MOLECULE
2bge_ligand
   22    23     1     0     0
SMALL
GAST_HUCK


@<TRIPOS>ATOM
      1 C1         54.4090   33.7940   37.9070 C.ar      1 T2D        -0.0451
      2 C2         55.5270   33.8400   37.0330 C.ar      1 T2D        -0.0779
      3 C3         55.6900   32.8480   36.0310 C.ar      1 T2D        -0.0792
      4 C4         54.7340   31.8040   35.9010 C.ar      1 T2D        -0.0779
      5 C5         53.6160   31.7520   36.7740 C.ar      1 T2D        -0.0451
      6 C6         53.4360   32.7440   37.7880 C.ar      1 T2D         0.0699
      7 N7         52.2760   32.6720   38.6760 N.am      1 T2D        -0.1387
      8 S8         52.2690   31.8100   40.1460 S.o2      1 T2D         0.1653
      9 N9         50.6740   32.1790   40.5660 N.am      1 T2D        -0.1345
     10 C10        50.0700   32.9420   39.6640 C.2       1 T2D         0.2232
     11 C11        50.9570   33.3040   38.4680 C.3       1 T2D         0.1477
     12 O12        48.9060   33.3290   39.7720 O.2       1 T2D        -0.3929
     13 O13        53.2980   32.4180   41.2000 O.2       1 T2D        -0.1245
     14 O14        52.4990   30.2530   39.9290 O.2       1 T2D        -0.1245
     15 H1         54.2890   34.5559   38.6687 H         1 T2D         0.0481
     16 H2         56.2578   34.6346   37.1312 H         1 T2D         0.0572
     17 H3         56.5440   32.8865   35.3645 H         1 T2D         0.0471
     18 H4         54.8589   31.0473   35.1349 H         1 T2D         0.0572
     19 H5         52.8915   30.9523   36.6710 H         1 T2D         0.0481
     20 H6         50.2331   31.8570   41.4038 H         1 T2D         0.2165
     21 H7         50.5041   32.9277   37.5389 H         1 T2D         0.0799
     22 H8         51.0713   34.3962   38.4040 H         1 T2D         0.0799
@<TRIPOS>BOND
     1    1    2 ar 
     2    1    6 ar 
     3    2    3 ar 
     4    3    4 ar 
     5    4    5 ar 
     6    5    6 ar 
     7    6    7 1  
     8    7    8 am 
     9    7   11 1  
    10    8    9 am 
    11    8   13 2  
    12    8   14 2  
    13    9   10 am 
    14   10   11 1  
    15   10   12 2  
    16    1   15 1  
    17    2   16 1  
    18    3   17 1  
    19    4   18 1  
    20    5   19 1  
    21    9   20 1  
    22   11   21 1  
    23   11   22 1  
@<TRIPOS>SUBSTRUCTURE
     1 T2D         1

