### 
### Created by X-TOOL on Mon Sep 10 21:12:53 2018
### 

@<TRIPOS>MOLECULE
2bgn_ligand
  100   103     1     0     0
SMALL
GAST_HUCK


@<TRIPOS>ATOM
      1 N          24.3180   -4.0240  125.3380 N.4       1 MET         0.2379
      2 CA         25.0840   -5.1400  124.7140 C.3       1 MET         0.0658
      3 C          25.0160   -6.3660  125.6010 C.2       1 MET         0.2268
      4 O          25.6930   -6.4290  126.6270 O.2       1 MET        -0.3907
      5 CB         26.5510   -4.7530  124.5410 C.3       1 MET         0.0168
      6 CG         27.4440   -5.8470  124.0180 C.3       1 MET         0.0007
      7 SD         27.2400   -6.1010  122.2660 S.3       1 MET        -0.1638
      8 CE         28.2330   -4.7700  121.6370 C.3       1 MET        -0.0181
      9 N          24.2040   -7.3420  125.2090 N.am      1 TRP        -0.2599
     10 CA         24.0920   -8.5630  125.9780 C.3       1 TRP         0.1355
     11 C          24.0480   -9.7130  124.9960 C.2       1 TRP         0.2077
     12 O          23.7290   -9.5180  123.8320 O.2       1 TRP        -0.3940
     13 CB         22.8710   -8.5430  126.9070 C.3       1 TRP         0.0042
     14 CG         22.8460   -7.3540  127.8370 C.2       1 TRP        -0.0418
     15 CD1        22.3490   -6.1160  127.5590 C.2       1 TRP         0.0167
     16 CD2        23.3490   -7.2790  129.1770 C.ar      1 TRP        -0.0214
     17 NE1        22.4940   -5.2790  128.6380 N.pl3     1 TRP        -0.2890
     18 CE2        23.1080   -5.9680  129.6470 C.ar      1 TRP         0.0603
     19 CE3        23.9850   -8.1840  130.0320 C.ar      1 TRP        -0.0747
     20 CZ2        23.4750   -5.5430  130.9180 C.ar      1 TRP        -0.0443
     21 CZ3        24.3380   -7.7600  131.3000 C.ar      1 TRP        -0.0792
     22 CH2        24.0830   -6.4520  131.7300 C.ar      1 TRP        -0.0768
     23 N          24.4230  -10.8970  125.4660 N.am      1 PRO        -0.2497
     24 CA         24.3330  -12.1080  124.6850 C.3       1 PRO         0.1338
     25 C          23.0280  -12.3650  123.9510 C.2       1 PRO         0.2041
     26 O          21.9420  -12.0480  124.4390 O.2       1 PRO        -0.3944
     27 CB         24.5360  -13.2000  125.7370 C.3       1 PRO        -0.0104
     28 CG         25.4160  -12.5900  126.7680 C.3       1 PRO        -0.0281
     29 CD         25.0300  -11.1460  126.7890 C.3       1 PRO         0.0369
     30 N          23.1690  -12.9390  122.7590 N.am      1 VAL        -0.2635
     31 CA         22.0660  -13.6050  122.0660 C.3       1 VAL         0.1333
     32 C          21.4300  -14.5840  123.0400 C.2       1 VAL         0.2042
     33 O          22.0910  -15.4850  123.5790 O.2       1 VAL        -0.3944
     34 CB         22.5010  -14.3860  120.7890 C.3       1 VAL        -0.0063
     35 CG1        22.8120  -13.4090  119.7240 C.3       1 VAL        -0.0584
     36 CG2        23.6870  -15.3810  121.0060 C.3       1 VAL        -0.0584
     37 N          20.1300  -14.4110  123.2500 N.am      1 ASP        -0.2622
     38 CA         19.4720  -15.0170  124.3940 C.3       1 ASP         0.1425
     39 C          18.6310  -16.2530  124.0930 C.2       1 ASP         0.2082
     40 O          17.9840  -16.3490  123.0410 O.2       1 ASP        -0.3940
     41 CB         18.5820  -13.9760  125.0610 C.3       1 ASP         0.0406
     42 CG         17.5150  -13.4800  124.1280 C.2       1 ASP         0.0393
     43 OD1        17.8620  -12.7180  123.1930 O.co2     1 ASP        -0.5688
     44 OD2        16.3240  -13.8500  124.2480 O.co2     1 ASP        -0.5688
     45 N          18.6710  -17.2070  125.0230 N.am      1 PRO        -0.2510
     46 CA         17.6780  -18.2850  125.0960 C.3       1 PRO         0.1156
     47 C          16.4800  -17.9140  125.9930 C.2       1 PRO         0.1247
     48 O          15.3160  -18.1990  125.6750 O.2       1 PRO        -0.3725
     49 CB         18.4810  -19.4620  125.6960 C.3       1 PRO        -0.0117
     50 CG         19.7030  -18.8480  126.3990 C.3       1 PRO        -0.0281
     51 CD         19.7110  -17.3610  126.0630 C.3       1 PRO         0.0370
     52 H1         24.3659   -3.2106  124.7446 H         1 MET         0.2015
     53 H2         24.7147   -3.8066  126.2388 H         1 MET         0.2015
     54 H3         23.3553   -4.3000  125.4525 H         1 MET         0.2015
     55 H4         24.6483   -5.3713  123.7308 H         1 MET         0.1098
     56 H5         26.9378   -4.4371  125.5211 H         1 MET         0.0354
     57 H6         26.5998   -3.9084  123.8380 H         1 MET         0.0354
     58 H7         27.2019   -6.7832  124.5424 H         1 MET         0.0380
     59 H8         28.4912   -5.5754  124.2171 H         1 MET         0.0380
     60 H9         28.2128   -4.7855  120.5373 H         1 MET         0.0340
     61 H10        29.2692   -4.8887  121.9864 H         1 MET         0.0340
     62 H11        27.8320   -3.8112  121.9975 H         1 MET         0.0340
     63 H12        23.6648   -7.2318  124.3741 H         1 TRP         0.1886
     64 H13        24.9895   -8.6697  126.6050 H         1 TRP         0.0815
     65 H14        22.8792   -9.4604  127.5138 H         1 TRP         0.0397
     66 H15        21.9620   -8.5209  126.2880 H         1 TRP         0.0397
     67 H16        21.8981   -5.8293  126.6101 H         1 TRP         0.0795
     68 H17        22.1907   -4.2956  128.6803 H         1 TRP         0.2216
     69 H18        24.1969   -9.1965  129.7079 H         1 TRP         0.0540
     70 H19        23.2851   -4.5287  131.2500 H         1 TRP         0.0541
     71 H20        24.8227   -8.4553  131.9758 H         1 TRP         0.0510
     72 H21        24.3759   -6.1564  132.7310 H         1 TRP         0.0530
     73 H22        25.1465  -12.1212  123.9447 H         1 PRO         0.0802
     74 H23        25.0193  -14.0812  125.2899 H         1 PRO         0.0313
     75 H24        23.5723  -13.4946  126.1780 H         1 PRO         0.0313
     76 H25        26.4746  -12.7047  126.4918 H         1 PRO         0.0287
     77 H26        25.2411  -13.0527  127.7505 H         1 PRO         0.0287
     78 H27        24.3032  -10.9511  127.5914 H         1 PRO         0.0524
     79 H28        25.9160  -10.5105  126.9344 H         1 PRO         0.0524
     80 H29        24.0664  -12.9142  122.3184 H         1 VAL         0.1883
     81 H30        21.3277  -12.8444  121.7722 H         1 VAL         0.0802
     82 H31        21.6386  -14.9848  120.4610 H         1 VAL         0.0343
     83 H32        23.1212  -13.9444  118.8142 H         1 VAL         0.0234
     84 H33        23.6278  -12.7507  120.0572 H         1 VAL         0.0234
     85 H34        21.9184  -12.8050  119.5081 H         1 VAL         0.0234
     86 H35        23.4266  -16.0938  121.8023 H         1 VAL         0.0234
     87 H36        24.5877  -14.8202  121.2961 H         1 VAL         0.0234
     88 H37        23.8812  -15.9293  120.0724 H         1 VAL         0.0234
     89 H38        19.5970  -13.8558  122.6115 H         1 ASP         0.1884
     90 H39        20.2575  -15.3177  125.1030 H         1 ASP         0.0819
     91 H40        19.2034  -13.1251  125.3769 H         1 ASP         0.0478
     92 H41        18.1034  -14.4278  125.9424 H         1 ASP         0.0478
     93 H42        17.3078  -18.5375  124.0914 H         1 PRO         0.0792
     94 H43        16.6608  -17.3884  126.9295 H         1 PRO         0.1373
     95 H44        18.8062  -20.1454  124.8978 H         1 PRO         0.0314
     96 H45        17.8632  -20.0124  126.4208 H         1 PRO         0.0314
     97 H46        20.6262  -19.3224  126.0347 H         1 PRO         0.0287
     98 H47        19.6231  -18.9888  127.4870 H         1 PRO         0.0287
     99 H48        19.4636  -16.7611  126.9512 H         1 PRO         0.0524
    100 H49        20.6946  -17.0557  125.6766 H         1 PRO         0.0524
@<TRIPOS>BOND
     1    1    2 1  
     2    2    3 1  
     3    2    5 1  
     4    3    4 2  
     5    3    9 am 
     6    5    6 1  
     7    6    7 1  
     8    7    8 1  
     9    9   10 1  
    10   10   11 1  
    11   10   13 1  
    12   11   12 2  
    13   11   23 am 
    14   13   14 1  
    15   14   15 2  
    16   14   16 1  
    17   15   17 1  
    18   16   18 ar 
    19   16   19 ar 
    20   17   18 1  
    21   18   20 ar 
    22   19   21 ar 
    23   20   22 ar 
    24   21   22 ar 
    25   23   24 1  
    26   23   29 1  
    27   24   25 1  
    28   24   27 1  
    29   25   26 2  
    30   25   30 am 
    31   27   28 1  
    32   28   29 1  
    33   30   31 1  
    34   31   32 1  
    35   31   34 1  
    36   32   33 2  
    37   32   37 am 
    38   34   35 1  
    39   34   36 1  
    40   37   38 1  
    41   38   39 1  
    42   38   41 1  
    43   39   40 2  
    44   39   45 am 
    45   41   42 1  
    46   42   43 ar 
    47   42   44 ar 
    48   45   46 1  
    49   45   51 1  
    50   46   47 1  
    51   46   49 1  
    52   47   48 2  
    53   49   50 1  
    54   50   51 1  
    55    1   52 1  
    56    1   53 1  
    57    1   54 1  
    58    2   55 1  
    59    5   56 1  
    60    5   57 1  
    61    6   58 1  
    62    6   59 1  
    63    8   60 1  
    64    8   61 1  
    65    8   62 1  
    66    9   63 1  
    67   10   64 1  
    68   13   65 1  
    69   13   66 1  
    70   15   67 1  
    71   17   68 1  
    72   19   69 1  
    73   20   70 1  
    74   21   71 1  
    75   22   72 1  
    76   24   73 1  
    77   27   74 1  
    78   27   75 1  
    79   28   76 1  
    80   28   77 1  
    81   29   78 1  
    82   29   79 1  
    83   30   80 1  
    84   31   81 1  
    85   34   82 1  
    86   35   83 1  
    87   35   84 1  
    88   35   85 1  
    89   36   86 1  
    90   36   87 1  
    91   36   88 1  
    92   37   89 1  
    93   38   90 1  
    94   41   91 1  
    95   41   92 1  
    96   46   93 1  
    97   47   94 1  
    98   49   95 1  
    99   49   96 1  
   100   50   97 1  
   101   50   98 1  
   102   51   99 1  
   103   51  100 1  
@<TRIPOS>SUBSTRUCTURE
     1 MET         1

