### 
### Created by X-TOOL on Mon Sep 10 21:12:52 2018
### 

@<TRIPOS>MOLECULE
2bgr_ligand
   46    46     1     0     0
SMALL
GAST_HUCK


@<TRIPOS>ATOM
      1 N          38.5330   52.2340   34.2950 N.4       1 MET         0.2379
      2 CA         38.2470   51.8580   35.7040 C.3       1 MET         0.0658
      3 C          39.2650   52.3190   36.7640 C.2       1 MET         0.2268
      4 O          40.2300   53.0630   36.4910 O.2       1 MET        -0.3907
      5 CB         38.0020   50.3430   35.8330 C.3       1 MET         0.0168
      6 CG         36.5600   49.9690   35.6080 C.3       1 MET         0.0007
      7 SD         35.9270   48.6170   36.5910 S.3       1 MET        -0.1638
      8 CE         34.6330   48.0300   35.5040 C.3       1 MET        -0.0181
      9 N          38.9690   51.8700   37.9820 N.am      1 ASP        -0.2595
     10 CA         39.6430   52.2240   39.2280 C.3       1 ASP         0.1426
     11 C          41.1210   51.8240   39.2170 C.2       1 ASP         0.2082
     12 O          41.4540   50.6890   38.8610 O.2       1 ASP        -0.3940
     13 CB         38.9170   51.4940   40.3680 C.3       1 ASP         0.0406
     14 CG         37.4270   51.2740   40.0700 C.2       1 ASP         0.0393
     15 OD1        36.6320   52.2370   40.2050 O.co2     1 ASP        -0.5688
     16 OD2        36.9600   50.1860   39.6610 O.co2     1 ASP        -0.5688
     17 N          42.0060   52.7260   39.6390 N.am      1 PRO        -0.2510
     18 CA         43.4610   52.4960   39.5120 C.3       1 PRO         0.1156
     19 C          43.9840   51.3480   40.3770 C.2       1 PRO         0.1247
     20 O          44.2210   50.2490   39.8620 O.2       1 PRO        -0.3725
     21 CB         44.0920   53.8200   39.9560 C.3       1 PRO        -0.0117
     22 CG         43.0090   54.5680   40.7050 C.3       1 PRO        -0.0281
     23 CD         41.6790   53.9960   40.3120 C.3       1 PRO         0.0370
     24 H1         37.8024   51.8796   33.6978 H         1 MET         0.2015
     25 H2         39.4171   51.8393   34.0147 H         1 MET         0.2015
     26 H3         38.5733   53.2381   34.2167 H         1 MET         0.2015
     27 H4         37.3012   52.3588   35.9584 H         1 MET         0.1098
     28 H5         38.2954   50.0233   36.8438 H         1 MET         0.0354
     29 H6         38.6217   49.8211   35.0890 H         1 MET         0.0354
     30 H7         36.4468   49.6943   34.5489 H         1 MET         0.0380
     31 H8         35.9465   50.8560   35.8244 H         1 MET         0.0380
     32 H9         34.1246   47.1724   35.9689 H         1 MET         0.0340
     33 H10        35.0727   47.7196   34.5447 H         1 MET         0.0340
     34 H11        33.9060   48.8370   35.3302 H         1 MET         0.0340
     35 H12        38.2079   51.2249   38.0504 H         1 ASP         0.1886
     36 H13        39.5724   53.3110   39.3807 H         1 ASP         0.0819
     37 H14        39.0084   52.0936   41.2856 H         1 ASP         0.0478
     38 H15        39.3946   50.5149   40.5206 H         1 ASP         0.0478
     39 H16        43.7117   52.2844   38.4621 H         1 PRO         0.0792
     40 H17        44.1472   51.4981   41.4432 H         1 PRO         0.1373
     41 H18        44.4210   54.3992   39.0806 H         1 PRO         0.0314
     42 H19        44.9521   53.6314   40.6153 H         1 PRO         0.0314
     43 H20        43.0460   55.6357   40.4431 H         1 PRO         0.0287
     44 H21        43.1581   54.4508   41.7885 H         1 PRO         0.0287
     45 H22        41.0558   53.8158   41.2003 H         1 PRO         0.0524
     46 H23        41.1516   54.6749   39.6257 H         1 PRO         0.0524
@<TRIPOS>BOND
     1    1    2 1  
     2    2    3 1  
     3    2    5 1  
     4    3    4 2  
     5    3    9 am 
     6    5    6 1  
     7    6    7 1  
     8    7    8 1  
     9    9   10 1  
    10   10   11 1  
    11   10   13 1  
    12   11   12 2  
    13   11   17 am 
    14   13   14 1  
    15   14   15 ar 
    16   14   16 ar 
    17   17   18 1  
    18   17   23 1  
    19   18   19 1  
    20   18   21 1  
    21   19   20 2  
    22   21   22 1  
    23   22   23 1  
    24    1   24 1  
    25    1   25 1  
    26    1   26 1  
    27    2   27 1  
    28    5   28 1  
    29    5   29 1  
    30    6   30 1  
    31    6   31 1  
    32    8   32 1  
    33    8   33 1  
    34    8   34 1  
    35    9   35 1  
    36   10   36 1  
    37   13   37 1  
    38   13   38 1  
    39   18   39 1  
    40   19   40 1  
    41   21   41 1  
    42   21   42 1  
    43   22   43 1  
    44   22   44 1  
    45   23   45 1  
    46   23   46 1  
@<TRIPOS>SUBSTRUCTURE
     1 MET         1

