### 
### Created by X-TOOL on Mon Sep 10 21:12:53 2018
### 

@<TRIPOS>MOLECULE
2bjm_ligand
   25    27     1     0     0
SMALL
GAST_HUCK


@<TRIPOS>ATOM
      1 C1         37.9990   76.6160   31.7380 C.ar      1 ANF        -0.0541
      2 C2         38.3950   77.9470   31.6960 C.ar      1 ANF        -0.0646
      3 C3         39.6240   78.3030   32.2400 C.ar      1 ANF        -0.0657
      4 C4         40.4690   77.3730   32.8280 C.ar      1 ANF        -0.0612
      5 C5         41.3660   72.8260   34.0850 C.ar      1 ANF        -0.0612
      6 C6         40.9900   71.4860   34.1350 C.ar      1 ANF        -0.0657
      7 C7         39.7680   71.0880   33.5970 C.ar      1 ANF        -0.0646
      8 C8         38.9250   72.0330   33.0130 C.ar      1 ANF        -0.0541
      9 C9         38.4640   74.3310   32.3780 C.ar      1 ANF         0.1203
     10 O9         37.3900   74.0020   31.9010 O.3       1 ANF        -0.3193
     11 C10        40.9040   75.1020   33.4520 C.ar      1 ANF        -0.0681
     12 C11        40.5220   73.7670   33.5000 C.ar      1 ANF        -0.0316
     13 C12        39.2970   73.3760   32.9620 C.ar      1 ANF         0.0205
     14 C13        38.8400   75.6680   32.3250 C.ar      1 ANF         0.0205
     15 C14        40.0690   76.0460   32.8680 C.ar      1 ANF        -0.0316
     16 H1         37.0455   76.3159   31.3188 H         1 ANF         0.0636
     17 H2         37.7550   78.6971   31.2456 H         1 ANF         0.0573
     18 H3         39.9322   79.3416   32.2035 H         1 ANF         0.0614
     19 H4         41.4213   77.6772   33.2471 H         1 ANF         0.0583
     20 H5         42.3170   73.1372   34.5020 H         1 ANF         0.0583
     21 H6         41.6467   70.7542   34.5915 H         1 ANF         0.0614
     22 H7         39.4730   70.0455   33.6323 H         1 ANF         0.0573
     23 H8         37.9742   71.7215   32.5959 H         1 ANF         0.0636
     24 H9         36.9535   74.7683   31.5479 H         1 ANF         0.2571
     25 H10        41.8558   75.4075   33.8712 H         1 ANF         0.0424
@<TRIPOS>BOND
     1    1    2 ar 
     2   14    1 ar 
     3    2    3 ar 
     4    3    4 ar 
     5    4   15 ar 
     6    6    5 ar 
     7    5   12 ar 
     8    7    6 ar 
     9    8    7 ar 
    10   13    8 ar 
    11    9   10 1  
    12    9   13 ar 
    13    9   14 ar 
    14   12   11 ar 
    15   11   15 ar 
    16   12   13 ar 
    17   14   15 ar 
    18    1   16 1  
    19    2   17 1  
    20    3   18 1  
    21    4   19 1  
    22    5   20 1  
    23    6   21 1  
    24    7   22 1  
    25    8   23 1  
    26   10   24 1  
    27   11   25 1  
@<TRIPOS>SUBSTRUCTURE
     1 ANF         1

