### 
### Created by X-TOOL on Mon Sep 10 21:12:55 2018
### 

@<TRIPOS>MOLECULE
2bks_ligand
   87    91     1     0     0
SMALL
GAST_HUCK


@<TRIPOS>ATOM
      1 C1        127.1510   17.5480   44.8250 C.3       1 PZ1         0.0578
      2 O1        127.4520   18.9130   45.0260 O.3       1 PZ1        -0.3249
      3 C2        127.6720   19.2280   46.3770 C.ar      1 PZ1         0.0946
      4 C3        128.9870   19.0930   46.9720 C.ar      1 PZ1         0.0118
      5 C4        130.1470   18.5940   46.1010 C.3       1 PZ1         0.0798
      6 O2        131.4120   18.4850   46.7310 O.3       1 PZ1        -0.3692
      7 C5        126.5680   19.6890   47.1560 C.ar      1 PZ1        -0.0396
      8 C6        126.7510   20.0240   48.5460 C.ar      1 PZ1        -0.0776
      9 C7        128.0420   19.8940   49.1390 C.ar      1 PZ1        -0.0796
     10 C8        129.1470   19.4320   48.3590 C.ar      1 PZ1        -0.0666
     11 C20       128.2660   17.0310   37.4140 C.3       1 PZ1         0.1311
     12 C21       127.7750   16.9150   35.9610 C.3       1 PZ1        -0.0008
     13 N2        128.7820   16.4540   35.0250 N.4       1 PZ1         0.2463
     14 C22       130.2270   16.6830   35.1560 C.3       1 PZ1         0.0618
     15 C23       130.7300   17.1130   36.5590 C.2       1 PZ1         0.2491
     16 N3        129.7930   17.2660   37.6010 N.am      1 PZ1        -0.2110
     17 O5        131.9330   17.2970   36.6850 O.2       1 PZ1        -0.3802
     18 C24       127.3630   18.1500   38.0070 C.3       1 PZ1         0.1014
     19 O6        127.2200   17.9100   39.3960 O.3       1 PZ1        -0.3227
     20 C25       130.5030   19.0240   39.2390 C.ar      1 PZ1        -0.0488
     21 C26       130.2890   17.6450   38.8640 C.ar      1 PZ1         0.0593
     22 C27       130.5940   16.6010   39.8370 C.ar      1 PZ1        -0.0488
     23 C28       131.0860   16.9670   41.1360 C.ar      1 PZ1        -0.0458
     24 C29       131.2850   18.3730   41.4870 C.ar      1 PZ1         0.0759
     25 C30       130.9890   19.3770   40.5230 C.ar      1 PZ1        -0.0458
     26 O7        131.7330   18.8030   42.7460 O.3       1 PZ1        -0.3276
     27 C31       132.8430   18.1990   43.3620 C.3       1 PZ1         0.0693
     28 C32       133.0530   18.8620   44.7420 C.3       1 PZ1        -0.0018
     29 C33       132.5130   17.9960   45.9110 C.3       1 PZ1         0.0524
     30 C34       121.3260   16.2240   38.9270 C.3       1 PZ1         0.0460
     31 C9        127.0410   19.6520   41.1010 C.ar      1 PZ1        -0.0531
     32 C10       126.2160   20.5810   41.8120 C.ar      1 PZ1        -0.0800
     33 C11       124.7950   20.6860   41.5290 C.ar      1 PZ1        -0.0352
     34 C12       124.1770   19.8430   40.5120 C.ar      1 PZ1         0.0339
     35 C13       125.0460   18.9210   39.8190 C.ar      1 PZ1        -0.0226
     36 C14       126.4410   18.8150   40.0920 C.ar      1 PZ1         0.0725
     37 C15       123.9930   21.6960   42.3280 C.3       1 PZ1        -0.0259
     38 C16       122.4680   21.7900   42.0100 C.3       1 PZ1        -0.0270
     39 C17       121.8560   20.8660   40.9150 C.3       1 PZ1         0.0266
     40 N1        122.7590   19.9140   40.2000 N.pl3     1 PZ1        -0.3136
     41 C18       122.1450   19.0260   39.1470 C.3       1 PZ1         0.0274
     42 C19       121.8940   17.5600   39.5340 C.3       1 PZ1        -0.0102
     43 O3        120.3860   14.9840   39.1130 O.3       1 PZ1        -0.3949
     44 H1        126.9895   17.3622   43.7529 H         1 PZ1         0.0574
     45 H2        126.2400   17.2873   45.3836 H         1 PZ1         0.0574
     46 H3        127.9891   16.9313   45.1818 H         1 PZ1         0.0574
     47 H4        130.2538   19.2904   45.2563 H         1 PZ1         0.0700
     48 H5        129.8756   17.5974   45.7226 H         1 PZ1         0.0700
     49 H6        125.5891   19.7874   46.7008 H         1 PZ1         0.0521
     50 H7        125.9122   20.3728   49.1375 H         1 PZ1         0.0531
     51 H8        128.1852   20.1462   50.1835 H         1 PZ1         0.0505
     52 H9        130.1225   19.3357   48.8218 H         1 PZ1         0.0526
     53 H10       128.0377   16.0872   37.9307 H         1 PZ1         0.0698
     54 H11       127.4294   17.9068   35.6341 H         1 PZ1         0.0842
     55 H12       126.9333   16.2072   35.9374 H         1 PZ1         0.0842
     56 H13       128.5264   16.8563   34.1368 H         1 PZ1         0.2033
     57 H14       128.6720   15.4528   34.9846 H         1 PZ1         0.2033
     58 H15       130.5073   17.4724   34.4430 H         1 PZ1         0.1067
     59 H16       130.7403   15.7477   34.8881 H         1 PZ1         0.1067
     60 H17       126.3762   18.1293   37.5215 H         1 PZ1         0.0641
     61 H18       127.8310   19.1321   37.8446 H         1 PZ1         0.0641
     62 H19       130.2868   19.8072   38.5214 H         1 PZ1         0.0478
     63 H20       130.4504   15.5574   39.5814 H         1 PZ1         0.0478
     64 H21       131.3117   16.1947   41.8624 H         1 PZ1         0.0507
     65 H22       131.1365   20.4215   40.7728 H         1 PZ1         0.0507
     66 H23       133.7383   18.3441   42.7397 H         1 PZ1         0.0609
     67 H24       132.6567   17.1226   43.4911 H         1 PZ1         0.0609
     68 H25       132.5304   19.8299   44.7506 H         1 PZ1         0.0313
     69 H26       134.1302   19.0255   44.8936 H         1 PZ1         0.0313
     70 H27       132.1841   17.0417   45.4738 H         1 PZ1         0.0563
     71 H28       133.3593   17.8158   46.5901 H         1 PZ1         0.0563
     72 H29       122.2734   15.7013   38.7291 H         1 PZ1         0.0558
     73 H30       120.9192   16.6159   37.9831 H         1 PZ1         0.0558
     74 H31       128.1006   19.5789   41.3179 H         1 PZ1         0.0415
     75 H32       126.6578   21.2150   42.5722 H         1 PZ1         0.0494
     76 H33       124.6179   18.2804   39.0565 H         1 PZ1         0.0417
     77 H34       124.4327   22.6881   42.1480 H         1 PZ1         0.0380
     78 H35       124.0961   21.4368   43.3920 H         1 PZ1         0.0380
     79 H36       122.2683   22.8270   41.7022 H         1 PZ1         0.0301
     80 H37       121.9318   21.5757   42.9462 H         1 PZ1         0.0301
     81 H38       121.4046   21.5193   40.1538 H         1 PZ1         0.0512
     82 H39       121.0695   20.2673   41.3976 H         1 PZ1         0.0512
     83 H40       122.8171   19.0294   38.2762 H         1 PZ1         0.0512
     84 H41       121.1770   19.4656   38.8648 H         1 PZ1         0.0512
     85 H42       122.9014   17.2442   39.8428 H         1 PZ1         0.0306
     86 H43       121.2582   17.6789   40.4237 H         1 PZ1         0.0306
     87 H44       120.4370   14.4310   38.3423 H         1 PZ1         0.2094
@<TRIPOS>BOND
     1    2    1 1  
     2    3    2 1  
     3    4    3 ar 
     4    3    7 ar 
     5    5    4 1  
     6    4   10 ar 
     7    6    5 1  
     8   29    6 1  
     9    7    8 ar 
    10    9    8 ar 
    11   10    9 ar 
    12   11   12 1  
    13   11   16 1  
    14   18   11 1  
    15   12   13 1  
    16   13   14 1  
    17   15   14 1  
    18   16   15 am 
    19   15   17 2  
    20   16   21 1  
    21   19   18 1  
    22   36   19 1  
    23   21   20 ar 
    24   20   25 ar 
    25   21   22 ar 
    26   22   23 ar 
    27   23   24 ar 
    28   25   24 ar 
    29   24   26 1  
    30   26   27 1  
    31   27   28 1  
    32   28   29 1  
    33   42   30 1  
    34   30   43 1  
    35   32   31 ar 
    36   36   31 ar 
    37   33   32 ar 
    38   34   33 ar 
    39   33   37 1  
    40   34   35 ar 
    41   40   34 1  
    42   35   36 ar 
    43   38   37 1  
    44   39   38 1  
    45   40   39 1  
    46   41   40 1  
    47   41   42 1  
    48    1   44 1  
    49    1   45 1  
    50    1   46 1  
    51    5   47 1  
    52    5   48 1  
    53    7   49 1  
    54    8   50 1  
    55    9   51 1  
    56   10   52 1  
    57   11   53 1  
    58   12   54 1  
    59   12   55 1  
    60   13   56 1  
    61   13   57 1  
    62   14   58 1  
    63   14   59 1  
    64   18   60 1  
    65   18   61 1  
    66   20   62 1  
    67   22   63 1  
    68   23   64 1  
    69   25   65 1  
    70   27   66 1  
    71   27   67 1  
    72   28   68 1  
    73   28   69 1  
    74   29   70 1  
    75   29   71 1  
    76   30   72 1  
    77   30   73 1  
    78   31   74 1  
    79   32   75 1  
    80   35   76 1  
    81   37   77 1  
    82   37   78 1  
    83   38   79 1  
    84   38   80 1  
    85   39   81 1  
    86   39   82 1  
    87   41   83 1  
    88   41   84 1  
    89   42   85 1  
    90   42   86 1  
    91   43   87 1  
@<TRIPOS>SUBSTRUCTURE
     1 PZ1         1

