### 
### Created by X-TOOL on Mon Sep 10 21:12:55 2018
### 

@<TRIPOS>MOLECULE
2bkt_ligand
   77    81     1     0     0
SMALL
GAST_HUCK


@<TRIPOS>ATOM
      1 C1         79.7520   18.5230   76.1530 C.3       1 RPF         0.0578
      2 O1         78.8870   17.6030   75.5200 O.3       1 RPF        -0.3249
      3 C2         79.3620   16.2980   75.6200 C.ar      1 RPF         0.0946
      4 C3         78.8790   15.4190   76.6370 C.ar      1 RPF         0.0118
      5 C4         77.8470   15.8930   77.6370 C.3       1 RPF         0.0798
      6 O2         76.8120   14.9580   77.8330 O.3       1 RPF        -0.3692
      7 C5         80.3330   15.8480   74.6910 C.ar      1 RPF        -0.0396
      8 C6         80.8280   14.5220   74.7680 C.ar      1 RPF        -0.0776
      9 C7         80.3580   13.6470   75.7630 C.ar      1 RPF        -0.0796
     10 C8         79.3900   14.0960   76.6920 C.ar      1 RPF        -0.0666
     11 C9         77.8750   22.7300   73.6350 C.ar      1 RPF         0.0725
     12 C10        78.7100   23.0140   72.5560 C.ar      1 RPF        -0.0228
     13 C11        79.1600   22.0180   71.6910 C.ar      1 RPF         0.0314
     14 C12        78.7740   20.6600   71.9000 C.ar      1 RPF        -0.0354
     15 C13        77.9290   20.3440   72.9910 C.ar      1 RPF        -0.0800
     16 C14        77.4750   21.3700   73.8580 C.ar      1 RPF        -0.0531
     17 C20        75.1900   23.9990   74.9170 C.3       1 RPF         0.1311
     18 C21        75.0590   25.5080   74.6140 C.3       1 RPF        -0.0008
     19 N2         73.9080   26.1790   75.1970 N.4       1 RPF         0.2463
     20 C22        72.8640   25.5540   75.9970 C.3       1 RPF         0.0618
     21 C23        73.0260   24.0520   76.2810 C.2       1 RPF         0.2491
     22 N3         74.1250   23.3800   75.7600 N.am      1 RPF        -0.2110
     23 O5         72.1640   23.5220   76.9670 O.2       1 RPF        -0.3802
     24 C24        76.6340   23.7730   75.4880 C.3       1 RPF         0.1014
     25 O6         77.5100   23.8660   74.3820 O.3       1 RPF        -0.3227
     26 C25        73.9880   21.0510   75.0340 C.ar      1 RPF        -0.0488
     27 C26        74.2410   22.0190   76.0500 C.ar      1 RPF         0.0593
     28 C27        74.6260   21.5730   77.3570 C.ar      1 RPF        -0.0488
     29 C28        74.7520   20.1990   77.6360 C.ar      1 RPF        -0.0458
     30 C29        74.5000   19.2320   76.6250 C.ar      1 RPF         0.0759
     31 C30        74.1180   19.6650   75.3270 C.ar      1 RPF        -0.0458
     32 O7         74.6090   17.8630   76.8370 O.3       1 RPF        -0.3276
     33 C31        74.4710   17.3410   78.1510 C.3       1 RPF         0.0693
     34 C32        74.5100   15.7990   78.0690 C.3       1 RPF        -0.0018
     35 C33        75.6040   15.2170   77.1390 C.3       1 RPF         0.0524
     36 C34        80.5930   19.9760   70.2680 C.3       1 RPF        -0.0272
     37 C35        80.5080   21.3950   69.6570 C.3       1 RPF         0.0236
     38 N1         79.9780   22.3660   70.6380 N.pl3     1 RPF        -0.3277
     39 C36        79.2640   19.5810   70.9630 C.3       1 RPF        -0.0259
     40 H1         79.3434   19.5393   76.0524 H         1 RPF         0.0574
     41 H2         80.7442   18.4784   75.6803 H         1 RPF         0.0574
     42 H3         79.8419   18.2679   77.2192 H         1 RPF         0.0574
     43 H4         77.4078   16.8328   77.2712 H         1 RPF         0.0700
     44 H5         78.3466   16.0723   78.6004 H         1 RPF         0.0700
     45 H6         80.6974   16.5183   73.9210 H         1 RPF         0.0521
     46 H7         81.5719   14.1813   74.0569 H         1 RPF         0.0531
     47 H8         80.7357   12.6324   75.8182 H         1 RPF         0.0505
     48 H9         79.0326   13.4182   77.4587 H         1 RPF         0.0526
     49 H10        79.0184   24.0390   72.3845 H         1 RPF         0.0417
     50 H11        77.6288   19.3168   73.1637 H         1 RPF         0.0494
     51 H12        76.8248   21.1267   74.6905 H         1 RPF         0.0415
     52 H13        75.1347   23.4792   73.9491 H         1 RPF         0.0698
     53 H14        75.0007   25.6280   73.5221 H         1 RPF         0.0842
     54 H15        75.9647   26.0064   74.9898 H         1 RPF         0.0842
     55 H16        73.4265   26.6009   74.4184 H         1 RPF         0.2033
     56 H17        74.2937   26.9013   75.7849 H         1 RPF         0.2033
     57 H18        71.9093   25.6934   75.4688 H         1 RPF         0.1067
     58 H19        72.8271   26.0753   76.9649 H         1 RPF         0.1067
     59 H20        76.7098   22.7790   75.9529 H         1 RPF         0.0641
     60 H21        76.8756   24.5456   76.2328 H         1 RPF         0.0641
     61 H22        73.6971   21.3707   74.0399 H         1 RPF         0.0478
     62 H23        74.8217   22.2999   78.1369 H         1 RPF         0.0478
     63 H24        75.0433   19.8760   78.6289 H         1 RPF         0.0507
     64 H25        73.9237   18.9321   74.5523 H         1 RPF         0.0507
     65 H26        73.5122   17.6661   78.5812 H         1 RPF         0.0609
     66 H27        75.2969   17.7005   78.7823 H         1 RPF         0.0609
     67 H28        73.5323   15.4525   77.7030 H         1 RPF         0.0313
     68 H29        74.6816   15.4082   79.0828 H         1 RPF         0.0313
     69 H30        75.2360   14.2759   76.7044 H         1 RPF         0.0563
     70 H31        75.8054   15.9387   76.3337 H         1 RPF         0.0563
     71 H32        81.4055   19.9531   71.0092 H         1 RPF         0.0301
     72 H33        80.8070   19.2532   69.4669 H         1 RPF         0.0301
     73 H34        79.8429   21.3698   68.7812 H         1 RPF         0.0510
     74 H35        81.5138   21.7125   69.3447 H         1 RPF         0.0510
     75 H36        80.2344   23.3575   70.5283 H         1 RPF         0.1733
     76 H37        78.4988   19.4050   70.1926 H         1 RPF         0.0380
     77 H38        79.4247   18.6571   71.5380 H         1 RPF         0.0380
@<TRIPOS>BOND
     1    2    1 1  
     2    3    2 1  
     3    4    3 ar 
     4    3    7 ar 
     5    5    4 1  
     6    4   10 ar 
     7    6    5 1  
     8   35    6 1  
     9    7    8 ar 
    10    9    8 ar 
    11   10    9 ar 
    12   12   11 ar 
    13   16   11 ar 
    14   11   25 1  
    15   13   12 ar 
    16   14   13 ar 
    17   13   38 1  
    18   14   15 ar 
    19   39   14 1  
    20   15   16 ar 
    21   17   18 1  
    22   17   22 1  
    23   24   17 1  
    24   18   19 1  
    25   19   20 1  
    26   21   20 1  
    27   22   21 am 
    28   21   23 2  
    29   22   27 1  
    30   25   24 1  
    31   27   26 ar 
    32   26   31 ar 
    33   27   28 ar 
    34   28   29 ar 
    35   29   30 ar 
    36   31   30 ar 
    37   30   32 1  
    38   32   33 1  
    39   33   34 1  
    40   34   35 1  
    41   36   37 1  
    42   36   39 1  
    43   37   38 1  
    44    1   40 1  
    45    1   41 1  
    46    1   42 1  
    47    5   43 1  
    48    5   44 1  
    49    7   45 1  
    50    8   46 1  
    51    9   47 1  
    52   10   48 1  
    53   12   49 1  
    54   15   50 1  
    55   16   51 1  
    56   17   52 1  
    57   18   53 1  
    58   18   54 1  
    59   19   55 1  
    60   19   56 1  
    61   20   57 1  
    62   20   58 1  
    63   24   59 1  
    64   24   60 1  
    65   26   61 1  
    66   28   62 1  
    67   29   63 1  
    68   31   64 1  
    69   33   65 1  
    70   33   66 1  
    71   34   67 1  
    72   34   68 1  
    73   35   69 1  
    74   35   70 1  
    75   36   71 1  
    76   36   72 1  
    77   37   73 1  
    78   37   74 1  
    79   38   75 1  
    80   39   76 1  
    81   39   77 1  
@<TRIPOS>SUBSTRUCTURE
     1 RPF         1

