### 
### Created by X-TOOL on Mon Sep 10 21:12:55 2018
### 

@<TRIPOS>MOLECULE
2bkz_ligand
   39    42     1     0     0
SMALL
GAST_HUCK


@<TRIPOS>ATOM
      1 C1         -8.4480  205.0660  115.1720 C.ar      1 SBC        -0.0394
      2 C2         -9.7390  204.5640  114.8570 C.ar      1 SBC        -0.0243
      3 C3        -10.7550  205.4590  114.3880 C.ar      1 SBC         0.1080
      4 C4        -10.4350  206.8480  114.2550 C.ar      1 SBC        -0.0243
      5 C5         -9.1610  207.3380  114.5650 C.ar      1 SBC        -0.0394
      6 C6         -8.1830  206.4490  115.0190 C.ar      1 SBC         0.1008
      7 N7        -11.9510  205.0490  114.0950 N.pl3     1 SBC        -0.1678
      8 C8        -12.5900  204.9980  112.8000 C.2       1 SBC         0.0887
      9 C9        -13.9050  204.4870  113.0170 C.2       1 SBC        -0.0106
     10 C10       -14.0260  204.2480  114.4020 C.2       1 SBC         0.1031
     11 N11       -12.8260  204.5970  115.0240 N.2       1 SBC        -0.1954
     12 C12       -12.1430  205.3610  111.4240 C.2       1 SBC         0.0273
     13 C13       -14.8570  204.1180  111.8240 C.3       1 SBC        -0.0191
     14 C14       -14.4400  204.6890  110.4200 C.3       1 SBC         0.0174
     15 C15       -12.9800  205.2250  110.3120 C.2       1 SBC         0.0833
     16 C16       -10.9410  205.8690  110.9420 C.2       1 SBC        -0.0034
     17 N17       -12.2880  205.6450  109.2060 N.pl3     1 SBC        -0.2146
     18 N18       -11.0560  206.0340  109.5810 N.2       1 SBC        -0.2288
     19 C19       -15.2650  203.6970  115.1440 C.2       1 SBC         0.2038
     20 N20       -15.2030  203.5360  116.4660 N.am      1 SBC        -0.3006
     21 O21       -16.3080  203.4050  114.5520 O.2       1 SBC        -0.3874
     22 S22        -6.6210  207.0820  115.3970 S.o2      1 SBC         0.0627
     23 O23        -6.6960  208.0660  116.7540 O.2       1 SBC        -0.1514
     24 O24        -5.5950  205.8990  115.6190 O.2       1 SBC        -0.1514
     25 N25        -6.0670  208.0420  114.0760 N.am      1 SBC        -0.2617
     26 H1         -7.6725  204.3966  115.5263 H         1 SBC         0.0619
     27 H2         -9.9547  203.5078  114.9710 H         1 SBC         0.0585
     28 H3        -11.1967  207.5360  113.9063 H         1 SBC         0.0585
     29 H4         -8.9361  208.3926  114.4544 H         1 SBC         0.0619
     30 H5        -15.8604  204.5015  112.0607 H         1 SBC         0.0380
     31 H6        -14.8925  203.0213  111.7462 H         1 SBC         0.0380
     32 H7        -15.1222  205.5167  110.1761 H         1 SBC         0.0502
     33 H8        -14.5598  203.8846  109.6794 H         1 SBC         0.0502
     34 H9        -10.0597  206.0971  111.5397 H         1 SBC         0.0641
     35 H10       -12.6525  205.6603  108.2428 H         1 SBC         0.2554
     36 H11       -15.9941  203.1808  116.9641 H         1 SBC         0.1807
     37 H12       -14.3654  203.7704  116.9595 H         1 SBC         0.1807
     38 H13        -5.1739  208.4894  114.1230 H         1 SBC         0.1634
     39 H14        -6.6388  208.1513  113.2629 H         1 SBC         0.1634
@<TRIPOS>BOND
     1    1    2 ar 
     2    1    6 ar 
     3    2    3 ar 
     4    3    4 ar 
     5    3    7 1  
     6    4    5 ar 
     7    5    6 ar 
     8    6   22 1  
     9    7    8 1  
    10    7   11 1  
    11    8    9 2  
    12    8   12 1  
    13    9   10 1  
    14    9   13 1  
    15   10   11 2  
    16   10   19 1  
    17   12   15 2  
    18   12   16 1  
    19   13   14 1  
    20   14   15 1  
    21   15   17 1  
    22   16   18 2  
    23   17   18 1  
    24   19   20 am 
    25   19   21 2  
    26   22   23 2  
    27   22   24 2  
    28   22   25 am 
    29    1   26 1  
    30    2   27 1  
    31    4   28 1  
    32    5   29 1  
    33   13   30 1  
    34   13   31 1  
    35   14   32 1  
    36   14   33 1  
    37   16   34 1  
    38   17   35 1  
    39   20   36 1  
    40   20   37 1  
    41   25   38 1  
    42   25   39 1  
@<TRIPOS>SUBSTRUCTURE
     1 SBC         1

