### 
### Created by X-TOOL on Mon Sep 10 21:12:53 2018
### 

@<TRIPOS>MOLECULE
2bmc_ligand
   74    78     1     0     0
SMALL
GAST_HUCK


@<TRIPOS>ATOM
      1 N1          5.4620   -7.6020    6.9100 N.am      1 MPY        -0.1966
      2 N2          8.1790   -8.7080    4.8710 N.pl3     1 MPY        -0.3202
      3 C3          9.1120   -7.2530    6.1380 C.3       1 MPY         0.0988
      4 N4          9.3510   -8.1150    5.1290 N.4       1 MPY         0.3724
      5 N5         10.1430   -6.4490    6.6550 N.am      1 MPY        -0.2423
      6 C6         10.0480   -5.4990    7.7180 C.2       1 MPY         0.2002
      7 C7         11.3070   -4.7070    8.0580 C.ar      1 MPY         0.0364
      8 O8          9.0180   -5.2850    8.3390 O.2       1 MPY        -0.3906
      9 C9         11.2790   -3.7180    9.0940 C.ar      1 MPY        -0.0535
     10 C10        12.3990   -2.9450    9.4360 C.ar      1 MPY        -0.0381
     11 C11        13.6890   -4.1080    7.7170 C.ar      1 MPY        -0.0381
     12 C12        12.5510   -4.8780    7.3830 C.ar      1 MPY        -0.0535
     13 C13         7.2120   -8.2420    5.6810 C.2       1 MPY         0.0565
     14 C14         7.7380   -7.3110    6.5130 C.2       1 MPY         0.0260
     15 C15         6.6320   -6.8430    7.3690 C.2       1 MPY         0.0409
     16 C16         5.7850   -8.5470    5.8020 C.2       1 MPY         0.0515
     17 N17        14.8130   -2.3000    9.1090 N.pl3     1 MPY        -0.2958
     18 C18        14.7080   -1.1640   10.1050 C.3       1 MPY         0.0680
     19 C19        16.0730   -0.5970   10.5860 C.3       1 MPY        -0.0118
     20 N20        17.0130   -0.2890    9.4800 N.4       1 MPY         0.2359
     21 C21        17.0220   -1.2560    8.3150 C.3       1 MPY        -0.0118
     22 C22        16.1730   -2.5450    8.5180 C.3       1 MPY         0.0680
     23 C23        18.3550   -0.0600   10.0250 C.3       1 MPY        -0.0430
     24 C24        13.6520   -3.1050    8.7590 C.ar      1 MPY         0.0460
     25 C25         4.1360   -7.2370    7.1000 C.2       1 MPY         0.3566
     26 O26         3.2230   -7.8020    6.5190 O.2       1 MPY        -0.3580
     27 C27         2.6370   -5.5130    8.2760 C.ar      1 MPY         0.0734
     28 C28         2.1730   -4.5180    7.3180 C.ar      1 MPY        -0.0276
     29 C29         1.8450   -5.8060    9.4510 C.ar      1 MPY        -0.0276
     30 N30         3.8780   -6.1680    7.9940 N.am      1 MPY        -0.2102
     31 C31         0.9360   -3.8550    7.5820 C.ar      1 MPY        -0.0802
     32 C32         2.9270   -4.1330    6.0340 C.3       1 MPY        -0.0277
     33 C33         0.6230   -5.1030    9.6410 C.ar      1 MPY        -0.0802
     34 C34         2.2040   -6.8200   10.5230 C.3       1 MPY        -0.0277
     35 C35         0.1660   -4.1390    8.7280 C.ar      1 MPY        -0.0904
     36 C36         4.1550   -3.2670    6.3460 C.3       1 MPY        -0.0577
     37 C37         3.1710   -6.2410   11.5630 C.3       1 MPY        -0.0577
     38 H1          8.0366   -9.4268    4.1472 H         1 MPY         0.2126
     39 H2          9.3606   -8.0069    6.8995 H         1 MPY         0.1211
     40 H3          9.6807   -7.6200    4.3151 H         1 MPY         0.2288
     41 H4         10.0370   -8.7992    5.4070 H         1 MPY         0.2288
     42 H5         11.0429   -6.5537    6.2317 H         1 MPY         0.1910
     43 H6         10.3538   -3.5602    9.6364 H         1 MPY         0.0636
     44 H7         12.3147   -2.2111   10.2293 H         1 MPY         0.0530
     45 H8         14.6145   -4.2738    7.1775 H         1 MPY         0.0530
     46 H9         12.6264   -5.6171    6.5936 H         1 MPY         0.0636
     47 H10         6.6738   -6.1001    8.1642 H         1 MPY         0.0686
     48 H11         5.1554   -9.2462    5.2537 H         1 MPY         0.0609
     49 H12        14.1588   -1.5292   10.9854 H         1 MPY         0.0569
     50 H13        14.1434   -0.3458    9.6340 H         1 MPY         0.0569
     51 H14        16.5447   -1.3399   11.2461 H         1 MPY         0.0834
     52 H15        15.8854    0.3284   11.1503 H         1 MPY         0.0834
     53 H16        16.7047    0.5896    9.0939 H         1 MPY         0.2032
     54 H17        18.0634   -1.5595    8.1325 H         1 MPY         0.0834
     55 H18        16.6337   -0.7283    7.4315 H         1 MPY         0.0834
     56 H19        16.0417   -3.0293    7.5391 H         1 MPY         0.0569
     57 H20        16.7247   -3.2192    9.1896 H         1 MPY         0.0569
     58 H21        18.2936    0.6468   10.8656 H         1 MPY         0.0778
     59 H22        19.0028    0.3585    9.2407 H         1 MPY         0.0778
     60 H23        18.7752   -1.0134   10.3776 H         1 MPY         0.0778
     61 H24         4.6714   -5.8244    8.4964 H         1 MPY         0.2235
     62 H25         0.5783   -3.1107    6.8797 H         1 MPY         0.0460
     63 H26         2.2492   -3.5695    5.3759 H         1 MPY         0.0392
     64 H27         3.2559   -5.0500    5.5231 H         1 MPY         0.0392
     65 H28         0.0252   -5.3185   10.5192 H         1 MPY         0.0460
     66 H29         2.6771   -7.6900   10.0443 H         1 MPY         0.0392
     67 H30         1.2829   -7.1380   11.0333 H         1 MPY         0.0392
     68 H31        -0.7689   -3.6188    8.9026 H         1 MPY         0.0454
     69 H32         4.6701   -3.0100    5.4087 H         1 MPY         0.0248
     70 H33         4.8409   -3.8254    7.0000 H         1 MPY         0.0248
     71 H34         3.8343   -2.3449    6.8528 H         1 MPY         0.0248
     72 H35         3.4016   -7.0085   12.3165 H         1 MPY         0.0248
     73 H36         2.7054   -5.3736   12.0538 H         1 MPY         0.0248
     74 H37         4.0996   -5.9256   11.0648 H         1 MPY         0.0248
@<TRIPOS>BOND
     1    1   15 1  
     2    1   16 1  
     3   25    1 am 
     4    2    4 1  
     5   13    2 1  
     6    3    4 1  
     7    3    5 1  
     8   14    3 1  
     9    5    6 am 
    10    6    7 1  
    11    6    8 2  
    12    7    9 ar 
    13    7   12 ar 
    14    9   10 ar 
    15   10   24 ar 
    16   12   11 ar 
    17   11   24 ar 
    18   13   14 1  
    19   16   13 2  
    20   15   14 2  
    21   17   18 1  
    22   17   22 1  
    23   24   17 1  
    24   18   19 1  
    25   19   20 1  
    26   21   20 1  
    27   20   23 1  
    28   22   21 1  
    29   25   26 2  
    30   30   25 am 
    31   27   28 ar 
    32   27   29 ar 
    33   27   30 1  
    34   28   31 ar 
    35   28   32 1  
    36   29   33 ar 
    37   29   34 1  
    38   31   35 ar 
    39   32   36 1  
    40   33   35 ar 
    41   34   37 1  
    42    2   38 1  
    43    3   39 1  
    44    4   40 1  
    45    4   41 1  
    46    5   42 1  
    47    9   43 1  
    48   10   44 1  
    49   11   45 1  
    50   12   46 1  
    51   15   47 1  
    52   16   48 1  
    53   18   49 1  
    54   18   50 1  
    55   19   51 1  
    56   19   52 1  
    57   20   53 1  
    58   21   54 1  
    59   21   55 1  
    60   22   56 1  
    61   22   57 1  
    62   23   58 1  
    63   23   59 1  
    64   23   60 1  
    65   30   61 1  
    66   31   62 1  
    67   32   63 1  
    68   32   64 1  
    69   33   65 1  
    70   34   66 1  
    71   34   67 1  
    72   35   68 1  
    73   36   69 1  
    74   36   70 1  
    75   36   71 1  
    76   37   72 1  
    77   37   73 1  
    78   37   74 1  
@<TRIPOS>SUBSTRUCTURE
     1 MPY         1

