### 
### Created by X-TOOL on Mon Sep 10 21:12:54 2018
### 

@<TRIPOS>MOLECULE
2bmg_ligand
   64    67     1     0     0
SMALL
GAST_HUCK


@<TRIPOS>ATOM
      1 C1          3.8120    7.9900   25.3070 C.ar      1 I1H         0.1251
      2 C2          5.0280    7.5780   24.5880 C.ar      1 I1H         0.1258
      3 C3          4.9910    6.4930   23.5850 C.ar      1 I1H        -0.0217
      4 C4          3.7460    5.7790   23.3140 C.ar      1 I1H         0.0295
      5 C5          2.5260    6.1320   24.0590 C.ar      1 I1H        -0.0615
      6 C6          2.5660    7.2380   25.0340 C.ar      1 I1H        -0.0349
      7 O7          3.9280    9.0680   26.2040 O.3       1 I1H        -0.3213
      8 O8          6.1620    8.2690   24.9070 O.3       1 I1H        -0.3185
      9 C9          7.4030    7.5870   24.9370 C.3       1 I1H         0.0776
     10 C10         8.2520    8.6020   25.6600 C.3       1 I1H         0.0091
     11 C13         9.6650    8.1600   25.8450 C.ar      1 I1H        -0.0261
     12 C16        10.0950    7.5480   27.1060 C.ar      1 I1H        -0.0590
     13 C17        11.5060    7.2120   27.3490 C.ar      1 I1H        -0.0544
     14 C18        12.4930    7.4540   26.2900 C.ar      1 I1H         0.0335
     15 C19        12.0680    8.0340   25.0290 C.ar      1 I1H        -0.0406
     16 C20        10.6740    8.3950   24.8240 C.ar      1 I1H         0.0419
     17 CL21       10.2970    9.1490   23.3750 Cl        1 I1H        -0.0771
     18 CL22       14.1310    7.0960   26.5020 Cl        1 I1H        -0.0770
     19 C23         3.7170    4.8000   22.2570 C.2       1 I1H         0.1942
     20 N24         4.8490    4.0550   22.1330 N.am      1 I1H        -0.2876
     21 C25         4.8180    3.1920   20.9580 C.3       1 I1H         0.0331
     22 C26         5.8570    3.6340   19.9300 C.3       1 I1H        -0.0173
     23 C29         7.2640    3.3010   20.4130 C.3       1 I1H        -0.0281
     24 C30         8.3510    3.5980   19.3810 C.3       1 I1H         0.0297
     25 N31         8.0230    2.8940   18.1060 N.pl3     1 I1H        -0.3006
     26 C32         6.6890    3.2520   17.5610 C.3       1 I1H         0.0297
     27 C33         5.6490    2.8910   18.6090 C.3       1 I1H        -0.0281
     28 C43         8.8170    1.8950   17.5260 C.ar      1 I1H         0.0610
     29 C44        10.1620    1.6120   18.0440 C.ar      1 I1H        -0.0167
     30 C45        10.9040    0.4990   17.4880 C.ar      1 I1H        -0.0037
     31 N46        10.3010   -0.2430   16.4750 N.ar      1 I1H        -0.3162
     32 C47         9.0470   -0.0170   15.9140 C.ar      1 I1H        -0.0037
     33 C48         8.2690    1.0760   16.4330 C.ar      1 I1H        -0.0167
     34 O52         2.7340    4.6680   21.5270 O.2       1 I1H        -0.3898
     35 C7          2.7830    9.9030   26.4380 C.3       1 I1H         0.0582
     36 H1          5.8934    6.2255   23.0472 H         1 I1H         0.0557
     37 H2          1.6060    5.5835   23.8923 H         1 I1H         0.0551
     38 H3          1.6598    7.5073   25.5644 H         1 I1H         0.0524
     39 H4          7.7821    7.3873   23.9239 H         1 I1H         0.0632
     40 H5          7.3345    6.6420   25.4958 H         1 I1H         0.0632
     41 H6          7.8104    8.7855   26.6506 H         1 I1H         0.0455
     42 H7          8.2510    9.5362   25.0793 H         1 I1H         0.0455
     43 H8          9.3589    7.3392   27.8738 H         1 I1H         0.0557
     44 H9         11.8135    6.7905   28.2992 H         1 I1H         0.0607
     45 H10        12.7911    8.1984   24.2384 H         1 I1H         0.0612
     46 H11         5.6150    4.0948   22.7747 H         1 I1H         0.1841
     47 H12         3.8179    3.2395   20.5025 H         1 I1H         0.0522
     48 H13         5.0324    2.1577   21.2650 H         1 I1H         0.0522
     49 H14         5.7654    4.7180   19.7673 H         1 I1H         0.0321
     50 H15         7.3025    2.2298   20.6602 H         1 I1H         0.0288
     51 H16         7.4710    3.8935   21.3164 H         1 I1H         0.0288
     52 H17         9.3221    3.2441   19.7573 H         1 I1H         0.0519
     53 H18         8.4006    4.6819   19.2005 H         1 I1H         0.0519
     54 H19         6.4991    2.6888   16.6354 H         1 I1H         0.0519
     55 H20         6.6482    4.3306   17.3489 H         1 I1H         0.0519
     56 H21         4.6526    3.1430   18.2169 H         1 I1H         0.0288
     57 H22         5.7045    1.8094   18.8014 H         1 I1H         0.0288
     58 H23        10.5916    2.2249   18.8281 H         1 I1H         0.0610
     59 H24        11.8960    0.2517   17.8484 H         1 I1H         0.0780
     60 H25         8.6698   -0.6432   15.1136 H         1 I1H         0.0780
     61 H26         7.2894    1.2941   16.0233 H         1 I1H         0.0610
     62 H27         3.0450   10.6908   27.1596 H         1 I1H         0.0575
     63 H28         1.9614    9.2937   26.8426 H         1 I1H         0.0575
     64 H29         2.4657   10.3641   25.4910 H         1 I1H         0.0575
@<TRIPOS>BOND
     1    1    2 ar 
     2    1    6 ar 
     3    1    7 1  
     4    2    3 ar 
     5    2    8 1  
     6    3    4 ar 
     7    4    5 ar 
     8    4   19 1  
     9    5    6 ar 
    10    7   35 1  
    11    8    9 1  
    12    9   10 1  
    13   10   11 1  
    14   11   12 ar 
    15   11   16 ar 
    16   12   13 ar 
    17   13   14 ar 
    18   14   15 ar 
    19   14   18 1  
    20   15   16 ar 
    21   16   17 1  
    22   19   20 am 
    23   19   34 2  
    24   20   21 1  
    25   21   22 1  
    26   22   23 1  
    27   22   27 1  
    28   23   24 1  
    29   24   25 1  
    30   25   26 1  
    31   25   28 1  
    32   26   27 1  
    33   28   29 ar 
    34   28   33 ar 
    35   29   30 ar 
    36   30   31 ar 
    37   31   32 ar 
    38   32   33 ar 
    39    3   36 1  
    40    5   37 1  
    41    6   38 1  
    42    9   39 1  
    43    9   40 1  
    44   10   41 1  
    45   10   42 1  
    46   12   43 1  
    47   13   44 1  
    48   15   45 1  
    49   20   46 1  
    50   21   47 1  
    51   21   48 1  
    52   22   49 1  
    53   23   50 1  
    54   23   51 1  
    55   24   52 1  
    56   24   53 1  
    57   26   54 1  
    58   26   55 1  
    59   27   56 1  
    60   27   57 1  
    61   29   58 1  
    62   30   59 1  
    63   32   60 1  
    64   33   61 1  
    65   35   62 1  
    66   35   63 1  
    67   35   64 1  
@<TRIPOS>SUBSTRUCTURE
     1 I1H         1

