### 
### Created by X-TOOL on Mon Sep 10 21:12:54 2018
### 

@<TRIPOS>MOLECULE
2bmv_ligand
   18    18     1     0     0
SMALL
GAST_HUCK


@<TRIPOS>ATOM
      1 C1         19.8070   36.4260   39.1770 C.ar      1 BEN         0.0260
      2 C2         19.6100   37.2280   38.0720 C.ar      1 BEN        -0.0565
      3 C3         18.3360   37.3430   37.5360 C.ar      1 BEN        -0.0618
      4 C4         17.2580   36.6600   38.0930 C.ar      1 BEN        -0.0618
      5 C5         17.4730   35.8650   39.2050 C.ar      1 BEN        -0.0618
      6 C6         18.7420   35.7460   39.7510 C.ar      1 BEN        -0.0565
      7 C          21.1680   36.2800   39.7800 C.cat     1 BEN         0.2356
      8 N1         21.8730   37.2780   40.0710 N.pl3     1 BEN        -0.2721
      9 N2         21.6360   35.0660   39.9750 N.pl3     1 BEN        -0.2721
     10 H1         20.4418   37.7624   37.6275 H         1 BEN         0.0617
     11 H2         18.1769   37.9747   36.6696 H         1 BEN         0.0618
     12 H3         16.2671   36.7496   37.6628 H         1 BEN         0.0618
     13 H4         16.6427   35.3310   39.6528 H         1 BEN         0.0618
     14 H5         18.9018   35.1235   40.6239 H         1 BEN         0.0617
     15 H6         22.8067   37.1458   40.4853 H         1 BEN         0.3181
     16 H7         21.5174   38.2286   39.8953 H         1 BEN         0.3181
     17 H8         21.0586   34.2470   39.7367 H         1 BEN         0.3181
     18 H9         22.5798   34.9345   40.3660 H         1 BEN         0.3181
@<TRIPOS>BOND
     1    1    2 ar 
     2    1    6 ar 
     3    1    7 1  
     4    2    3 ar 
     5    3    4 ar 
     6    4    5 ar 
     7    5    6 ar 
     8    7    8 ar 
     9    7    9 ar 
    10    2   10 1  
    11    3   11 1  
    12    4   12 1  
    13    5   13 1  
    14    6   14 1  
    15    8   15 1  
    16    8   16 1  
    17    9   17 1  
    18    9   18 1  
@<TRIPOS>SUBSTRUCTURE
     1 BEN         1

