### 
### Created by X-TOOL on Mon Sep 10 21:12:53 2018
### 

@<TRIPOS>MOLECULE
2bmz_ligand
   44    45     1     0     0
SMALL
GAST_HUCK


@<TRIPOS>ATOM
      1 C1         10.7640   30.4300   44.9380 C.3       1 XLM         0.1880
      2 C2         11.2520   28.9740   44.9610 C.3       1 XLM         0.1341
      3 C3         12.3540   28.8310   46.0180 C.3       1 XLM         0.1137
      4 C4         13.5040   29.7960   45.6760 C.3       1 XLM         0.1069
      5 C5         12.9580   31.2570   45.6300 C.3       1 XLM         0.0792
      6 O2         10.1670   28.0910   45.2560 O.3       1 XLM        -0.3841
      7 O3         12.8230   27.4810   46.0600 O.3       1 XLM        -0.3864
      8 O4         14.5430   29.6870   46.6360 O.3       1 XLM        -0.3869
      9 O5         11.8630   31.3500   44.6350 O.3       1 XLM        -0.3461
     10 C1'         6.8010   32.9380   44.0950 C.3       1 XLM         0.1876
     11 C2'         7.6140   31.6220   44.2600 C.3       1 XLM         0.1345
     12 C3'         9.1120   31.8510   43.9190 C.3       1 XLM         0.1206
     13 C4'         9.2300   32.3960   42.5060 C.3       1 XLM         0.1123
     14 C5'         8.4010   33.7030   42.3630 C.3       1 XLM         0.1130
     15 C6'         8.4420   34.2480   40.9420 C.3       1 XLM         0.0730
     16 C7'         6.5710   35.1690   45.0100 C.3       1 XLM         0.0395
     17 O1'         7.2710   33.8840   45.0460 O.3       1 XLM        -0.3520
     18 O2'         7.1170   30.6460   43.3510 O.3       1 XLM        -0.3841
     19 O3'         9.7820   30.5600   43.9720 O.3       1 XLM        -0.3401
     20 O4'        10.5900   32.6250   42.1770 O.3       1 XLM        -0.3865
     21 O5'         6.9960   33.4420   42.7330 O.3       1 XLM        -0.3405
     22 O6'         8.0150   33.2620   40.0040 O.3       1 XLM        -0.3924
     23 H1         10.3449   30.6842   45.9227 H         1 XLM         0.0937
     24 H2         11.6631   28.7160   43.9739 H         1 XLM         0.0671
     25 H3         11.9448   29.0953   47.0043 H         1 XLM         0.0647
     26 H4         13.9077   29.5342   44.6868 H         1 XLM         0.0643
     27 H5         13.7701   31.9421   45.3451 H         1 XLM         0.0587
     28 H6         12.5746   31.5355   46.6227 H         1 XLM         0.0587
     29 H7          9.4918   28.1889   44.5950 H         1 XLM         0.2101
     30 H8         12.1001   26.9023   46.2721 H         1 XLM         0.2100
     31 H9         14.8649   28.7933   46.6525 H         1 XLM         0.2100
     32 H10         5.7321   32.7427   44.2663 H         1 XLM         0.0937
     33 H11         7.5181   31.2598   45.2942 H         1 XLM         0.0671
     34 H12         9.5653   32.5513   44.6360 H         1 XLM         0.0651
     35 H13         8.8247   31.6486   41.8081 H         1 XLM         0.0647
     36 H14         8.8192   34.4593   43.0435 H         1 XLM         0.0647
     37 H15         9.4721   34.5503   40.7022 H         1 XLM         0.0584
     38 H16         7.7777   35.1220   40.8726 H         1 XLM         0.0584
     39 H17         6.9944   35.8386   45.7731 H         1 XLM         0.0525
     40 H18         5.5019   35.0100   45.2142 H         1 XLM         0.0525
     41 H19         6.6908   35.6241   44.0158 H         1 XLM         0.0525
     42 H20         7.6096   29.8400   43.4529 H         1 XLM         0.2101
     43 H21        10.6504   32.9303   41.2794 H         1 XLM         0.2100
     44 H22         8.5881   32.5063   40.0577 H         1 XLM         0.2095
@<TRIPOS>BOND
     1    1    2 1  
     2    1    9 1  
     3   19    1 1  
     4    2    3 1  
     5    2    6 1  
     6    3    4 1  
     7    3    7 1  
     8    5    4 1  
     9    4    8 1  
    10    9    5 1  
    11   11   10 1  
    12   10   17 1  
    13   10   21 1  
    14   12   11 1  
    15   11   18 1  
    16   12   13 1  
    17   12   19 1  
    18   13   14 1  
    19   13   20 1  
    20   14   15 1  
    21   14   21 1  
    22   15   22 1  
    23   17   16 1  
    24    1   23 1  
    25    2   24 1  
    26    3   25 1  
    27    4   26 1  
    28    5   27 1  
    29    5   28 1  
    30    6   29 1  
    31    7   30 1  
    32    8   31 1  
    33   10   32 1  
    34   11   33 1  
    35   12   34 1  
    36   13   35 1  
    37   14   36 1  
    38   15   37 1  
    39   15   38 1  
    40   16   39 1  
    41   16   40 1  
    42   16   41 1  
    43   18   42 1  
    44   20   43 1  
    45   22   44 1  
@<TRIPOS>SUBSTRUCTURE
     1 XLM         1

