### 
### Created by X-TOOL on Mon Sep 10 21:12:52 2018
### 

@<TRIPOS>MOLECULE
2bo4_ligand
   18    17     1     0     0
SMALL
GAST_HUCK


@<TRIPOS>ATOM
      1 CAC        87.9430   -2.3560   42.4440 C.2       1 FLC         0.0371
      2 CA         87.3510   -2.3750   41.0680 C.3       1 FLC         0.0356
      3 CB         85.8300   -2.1700   41.0840 C.3       1 FLC         0.1328
      4 CBC        85.1930   -2.5880   42.4120 C.2       1 FLC         0.0796
      5 CG         85.4550   -0.7180   40.7060 C.3       1 FLC         0.0356
      6 CGC        84.1510   -0.6060   39.9280 C.2       1 FLC         0.0371
      7 OA1        88.7230   -3.2740   42.7910 O.co2     1 FLC        -0.5690
      8 OA2        87.6140   -1.3980   43.1800 O.co2     1 FLC        -0.5690
      9 OB1        84.7070   -1.7710   43.2570 O.co2     1 FLC        -0.5449
     10 OB2        85.1790   -3.8180   42.6320 O.co2     1 FLC        -0.5449
     11 OG1        83.3440    0.2770   40.2400 O.co2     1 FLC        -0.5690
     12 OG2        83.9050   -1.3790   38.9820 O.co2     1 FLC        -0.5690
     13 OHB        85.3820   -3.1190   40.1090 O.3       1 FLC        -0.3818
     14 H1         87.5718   -3.3464   40.6015 H         1 FLC         0.0452
     15 H2         87.8099   -1.5705   40.4746 H         1 FLC         0.0452
     16 H3         86.2642   -0.2994   40.0896 H         1 FLC         0.0452
     17 H4         85.3585   -0.1319   41.6318 H         1 FLC         0.0452
     18 H5         85.6630   -3.9899   40.3640 H         1 FLC         0.2091
@<TRIPOS>BOND
     1    1    2 1  
     2    1    7 ar 
     3    1    8 ar 
     4    2    3 1  
     5    3    4 1  
     6    3    5 1  
     7    3   13 1  
     8    4    9 ar 
     9    4   10 ar 
    10    5    6 1  
    11    6   11 ar 
    12    6   12 ar 
    13    2   14 1  
    14    2   15 1  
    15    5   16 1  
    16    5   17 1  
    17   13   18 1  
@<TRIPOS>SUBSTRUCTURE
     1 FLC         1

