### 
### Created by X-TOOL on Mon Sep 10 21:12:54 2018
### 

@<TRIPOS>MOLECULE
2boh_ligand
   61    65     1     0     0
SMALL
GAST_HUCK


@<TRIPOS>ATOM
      1 C1          2.2850    8.5850   25.9480 C.ar      1 IIA        -0.0739
      2 C2          3.4480    8.9570   25.1150 C.ar      1 IIA        -0.0401
      3 C3          4.0950    8.0100   24.1680 C.ar      1 IIA         0.0720
      4 C4          3.5260    6.6310   24.0990 C.ar      1 IIA        -0.0173
      5 C5          2.3800    6.2500   24.9270 C.ar      1 IIA        -0.0711
      6 C6          1.7630    7.2180   25.8440 C.ar      1 IIA        -0.0763
      7 N7          5.1740    8.0190   23.2350 N.pl3     1 IIA        -0.2420
      8 C8          5.2550    6.7950   22.7150 C.2       1 IIA         0.1361
      9 C9          4.2750    5.9110   23.1780 C.2       1 IIA        -0.0389
     10 C10         6.2700    6.3010   21.9400 C.2       1 IIA         0.2273
     11 N11         5.8420    5.3110   21.1840 N.am      1 IIA        -0.2815
     12 C12         6.8610    4.4620   20.6990 C.3       1 IIA         0.0510
     13 C13         6.2680    3.0750   20.4830 C.3       1 IIA         0.0106
     14 C14         7.2670    2.0940   19.8740 C.3       1 IIA        -0.0295
     15 N15         7.7790    2.6860   18.5870 N.4       1 IIA         0.2371
     16 C16         8.4250    4.0240   18.7440 C.3       1 IIA        -0.0295
     17 C17         7.4000    4.9710   19.3650 C.3       1 IIA         0.0106
     18 C27         8.6540    1.7300   17.8630 C.3       1 IIA        -0.0266
     19 C28         9.3020    2.3550   16.6420 C.3       1 IIA        -0.0218
     20 C32         7.8180    0.5530   17.4320 C.3       1 IIA        -0.0218
     21 C37         6.1360    9.0320   22.7490 C.3       1 IIA         0.0905
     22 C38         7.4030    9.1580   23.5570 C.2       1 IIA         0.0547
     23 N41         8.4150    9.9160   23.1230 N.2       1 IIA        -0.1567
     24 O42         9.4730    9.7320   24.0210 O.3       1 IIA        -0.1786
     25 C43         9.0420    8.8750   24.9910 C.2       1 IIA         0.1597
     26 C44         7.6540    8.5190   24.8410 C.2       1 IIA        -0.0207
     27 C45         9.9480    8.2920   25.9640 C.2       1 IIA         0.0719
     28 S46        11.5760    8.4740   25.4560 S.3       1 IIA        -0.0237
     29 C47        12.0920    7.6350   26.9240 C.2       1 IIA         0.0959
     30 C48        11.0840    7.2210   27.7070 C.2       1 IIA        -0.0591
     31 C49         9.8020    7.5960   27.1140 C.2       1 IIA        -0.0635
     32 CL50       13.7560    7.4090   27.1440 Cl        1 IIA        -0.0551
     33 O56         7.4270    6.7250   21.9630 O.2       1 IIA        -0.3840
     34 H1          1.8293    9.3042   26.6189 H         1 IIA         0.0550
     35 H2          3.8460    9.9619   25.1977 H         1 IIA         0.0550
     36 H3          1.9828    5.2434   24.8627 H         1 IIA         0.0556
     37 H4          0.9146    6.9194   26.4491 H         1 IIA         0.0522
     38 H5          4.1297    4.8741   22.8785 H         1 IIA         0.0399
     39 H6          4.8749    5.1720   20.9709 H         1 IIA         0.1845
     40 H7          7.6796    4.4122   21.4321 H         1 IIA         0.0559
     41 H8          5.4048    3.1630   19.8069 H         1 IIA         0.0339
     42 H9          5.9346    2.6800   21.4539 H         1 IIA         0.0339
     43 H10         6.7702    1.1338   19.6710 H         1 IIA         0.0815
     44 H11         8.1039    1.9340   20.5697 H         1 IIA         0.0815
     45 H12         6.9697    2.8337   18.0045 H         1 IIA         0.2036
     46 H13         8.7384    4.4053   17.7609 H         1 IIA         0.0815
     47 H14         9.3028    3.9403   19.4016 H         1 IIA         0.0815
     48 H15         7.8774    5.9485   19.5281 H         1 IIA         0.0339
     49 H16         6.5584    5.0860   18.6661 H         1 IIA         0.0339
     50 H17         9.4457    1.3867   18.5451 H         1 IIA         0.0846
     51 H18         9.9378    1.6093   16.1422 H         1 IIA         0.0284
     52 H19         9.9172    3.2126   16.9519 H         1 IIA         0.0284
     53 H20         8.5210    2.6961   15.9465 H         1 IIA         0.0284
     54 H21         8.4501   -0.1678   16.8927 H         1 IIA         0.0284
     55 H22         7.0105    0.8995   16.7702 H         1 IIA         0.0284
     56 H23         7.3830    0.0680   18.3183 H         1 IIA         0.0284
     57 H24         5.6315   10.0095   22.7537 H         1 IIA         0.0749
     58 H25         6.4153    8.7684   21.7182 H         1 IIA         0.0749
     59 H26         6.9936    7.9463   25.4904 H         1 IIA         0.0373
     60 H27        11.2037    6.6841   28.6469 H         1 IIA         0.0439
     61 H28         8.8366    7.3430   27.5498 H         1 IIA         0.0451
@<TRIPOS>BOND
     1    1    2 ar 
     2    1    6 ar 
     3    2    3 ar 
     4    3    4 ar 
     5    3    7 1  
     6    4    5 ar 
     7    4    9 1  
     8    5    6 ar 
     9    7    8 1  
    10    7   21 1  
    11    8    9 2  
    12    8   10 1  
    13   10   11 am 
    14   10   33 2  
    15   11   12 1  
    16   12   13 1  
    17   12   17 1  
    18   13   14 1  
    19   14   15 1  
    20   15   16 1  
    21   15   18 1  
    22   16   17 1  
    23   18   19 1  
    24   18   20 1  
    25   21   22 1  
    26   22   23 2  
    27   22   26 1  
    28   23   24 1  
    29   24   25 1  
    30   25   26 2  
    31   25   27 1  
    32   27   28 1  
    33   27   31 2  
    34   28   29 1  
    35   29   30 2  
    36   29   32 1  
    37   30   31 1  
    38    1   34 1  
    39    2   35 1  
    40    5   36 1  
    41    6   37 1  
    42    9   38 1  
    43   11   39 1  
    44   12   40 1  
    45   13   41 1  
    46   13   42 1  
    47   14   43 1  
    48   14   44 1  
    49   15   45 1  
    50   16   46 1  
    51   16   47 1  
    52   17   48 1  
    53   17   49 1  
    54   18   50 1  
    55   19   51 1  
    56   19   52 1  
    57   19   53 1  
    58   20   54 1  
    59   20   55 1  
    60   20   56 1  
    61   21   57 1  
    62   21   58 1  
    63   26   59 1  
    64   30   60 1  
    65   31   61 1  
@<TRIPOS>SUBSTRUCTURE
     1 IIA         1

