### 
### Created by X-TOOL on Mon Sep 10 21:12:53 2018
### 

@<TRIPOS>MOLECULE
2boi_ligand
   26    26     1     0     0
SMALL
GAST_HUCK


@<TRIPOS>ATOM
      1 C1         35.6300   21.2600   20.8590 C.3       1 MFU         0.1875
      2 C2         35.2310   19.8350   20.5170 C.3       1 MFU         0.1341
      3 C3         34.7400   19.1250   21.7650 C.3       1 MFU         0.1140
      4 C4         33.6300   19.8970   22.4460 C.3       1 MFU         0.1095
      5 C5         34.0950   21.3200   22.7070 C.3       1 MFU         0.0873
      6 C6         32.9810   22.1590   23.3010 C.3       1 MFU        -0.0361
      7 O1         36.7380   21.2100   21.7460 O.3       1 MFU        -0.3520
      8 O2         36.3050   19.0630   19.9800 O.3       1 MFU        -0.3841
      9 O3         34.2800   17.8120   21.3820 O.3       1 MFU        -0.3864
     10 O4         32.4820   19.8270   21.5830 O.3       1 MFU        -0.3866
     11 O5         34.5340   21.9260   21.4750 O.3       1 MFU        -0.3431
     12 CM         37.2480   22.5220   22.0660 C.3       1 MFU         0.0395
     13 H1         35.9146   21.7972   19.9422 H         1 MFU         0.0937
     14 H2         34.4194   19.8734   19.7755 H         1 MFU         0.0671
     15 H3         35.5775   19.0229   22.4707 H         1 MFU         0.0648
     16 H4         33.3843   19.4261   23.4093 H         1 MFU         0.0646
     17 H5         34.9363   21.2923   23.4151 H         1 MFU         0.0621
     18 H6         33.3466   23.1812   23.4785 H         1 MFU         0.0255
     19 H7         32.6558   21.7154   24.2536 H         1 MFU         0.0255
     20 H8         32.1322   22.1894   22.6020 H         1 MFU         0.0255
     21 H9         36.6345   19.4841   19.1947 H         1 MFU         0.2101
     22 H10        34.0024   17.3366   22.1563 H         1 MFU         0.2100
     23 H11        31.7591   20.2978   21.9807 H         1 MFU         0.2100
     24 H12        38.1016   22.4260   22.7531 H         1 MFU         0.0525
     25 H13        36.4563   23.1162   22.5456 H         1 MFU         0.0525
     26 H14        37.5748   23.0235   21.1432 H         1 MFU         0.0525
@<TRIPOS>BOND
     1    1    2 1  
     2    1    7 1  
     3    1   11 1  
     4    2    3 1  
     5    2    8 1  
     6    3    4 1  
     7    3    9 1  
     8    4    5 1  
     9    4   10 1  
    10    5    6 1  
    11    5   11 1  
    12    7   12 1  
    13    1   13 1  
    14    2   14 1  
    15    3   15 1  
    16    4   16 1  
    17    5   17 1  
    18    6   18 1  
    19    6   19 1  
    20    6   20 1  
    21    8   21 1  
    22    9   22 1  
    23   10   23 1  
    24   12   24 1  
    25   12   25 1  
    26   12   26 1  
@<TRIPOS>SUBSTRUCTURE
     1 MFU         1

