### 
### Created by X-TOOL on Mon Sep 10 21:12:53 2018
### 

@<TRIPOS>MOLECULE
2boj_ligand
   23    23     1     0     0
SMALL
GAST_HUCK


@<TRIPOS>ATOM
      1 C1         22.4520   22.4300   30.0970 C.3       1 ARW         0.1872
      2 C2         21.7080   23.1710   28.9830 C.3       1 ARW         0.1341
      3 C3         20.7800   22.1860   28.2660 C.3       1 ARW         0.1137
      4 C4         19.8100   21.5500   29.2530 C.3       1 ARW         0.1069
      5 C5         20.5100   20.9630   30.4760 C.3       1 ARW         0.0792
      6 O1         23.2910   21.4520   29.4690 O.3       1 ARW        -0.3520
      7 O2         22.6180   23.7930   28.0500 O.3       1 ARW        -0.3841
      8 O3         20.0100   22.9310   27.2990 O.3       1 ARW        -0.3864
      9 O4         18.9120   22.5670   29.7170 O.3       1 ARW        -0.3869
     10 O5         21.4680   21.8920   31.0140 O.3       1 ARW        -0.3461
     11 CM         24.1900   20.7990   30.3800 C.3       1 ARW         0.0395
     12 H1         23.0915   23.1332   30.6507 H         1 ARW         0.0937
     13 H2         21.0953   23.9620   29.4401 H         1 ARW         0.0671
     14 H3         21.3732   21.4054   27.7672 H         1 ARW         0.0647
     15 H4         19.2483   20.7543   28.7418 H         1 ARW         0.0643
     16 H5         21.0295   20.0383   30.1845 H         1 ARW         0.0587
     17 H6         19.7585   20.7342   31.2460 H         1 ARW         0.0587
     18 H7         23.1825   24.3985   28.5159 H         1 ARW         0.2101
     19 H8         19.4189   22.3420   26.8449 H         1 ARW         0.2100
     20 H9         18.2778   22.1814   30.3098 H         1 ARW         0.2100
     21 H10        24.7993   20.0657   29.8314 H         1 ARW         0.0525
     22 H11        23.6109   20.2838   31.1605 H         1 ARW         0.0525
     23 H12        24.8481   21.5475   30.8455 H         1 ARW         0.0525
@<TRIPOS>BOND
     1    1    2 1  
     2    1    6 1  
     3    1   10 1  
     4    2    3 1  
     5    2    7 1  
     6    3    4 1  
     7    3    8 1  
     8    4    5 1  
     9    4    9 1  
    10    5   10 1  
    11    6   11 1  
    12    1   12 1  
    13    2   13 1  
    14    3   14 1  
    15    4   15 1  
    16    5   16 1  
    17    5   17 1  
    18    7   18 1  
    19    8   19 1  
    20    9   20 1  
    21   11   21 1  
    22   11   22 1  
    23   11   23 1  
@<TRIPOS>SUBSTRUCTURE
     1 ARW         1

