### 
### Created by X-TOOL on Mon Sep 10 21:12:53 2018
### 

@<TRIPOS>MOLECULE
2bok_ligand
   63    66     1     0     0
SMALL
GAST_HUCK


@<TRIPOS>ATOM
      1 O18        -5.0950   11.6340   18.9560 O.2       1 784        -0.3853
      2 C11        -4.7060   11.2860   20.0560 C.2       1 784         0.2184
      3 N12        -5.5700   10.9600   21.1340 N.am      1 784        -0.1843
      4 C19        -6.9190   10.4250   20.7890 C.3       1 784         0.0635
      5 C21        -6.9610    9.0710   20.0690 C.3       1 784         0.0123
      6 C23        -8.2440    8.3320   20.4420 C.3       1 784        -0.0286
      7 N29        -8.6360    7.1990   19.5760 N.4       1 784         0.2369
      8 C32        -8.5760    7.5310   18.1440 C.3       1 784        -0.0418
      9 C31       -10.0290    6.8680   19.9030 C.3       1 784        -0.0418
     10 C30        -7.7950    6.0180   19.8160 C.3       1 784        -0.0418
     11 C5         -3.2560   11.1790   20.4060 C.3       1 784         0.1236
     12 C2         -3.2540   10.2160   21.5820 C.3       1 784         0.1315
     13 C6         -4.7240   10.1280   21.9190 C.2       1 784         0.2203
     14 O13        -5.1790    9.4220   22.7910 O.2       1 784        -0.3852
     15 C7         -2.7990   12.5270   20.9470 C.3       1 784         0.0043
     16 C14        -1.5130   13.0570   20.3090 C.3       1 784        -0.0022
     17 C15        -0.6510   13.5580   21.4600 C.3       1 784        -0.0072
     18 C8         -1.3590   13.1400   22.7500 C.3       1 784        -0.0294
     19 N3         -2.5680   12.3630   22.4020 N.4       1 784         0.2554
     20 C1         -2.3620   10.9120   22.6250 C.3       1 784         0.0362
     21 C4         -2.5200   10.4520   24.0380 C.ar      1 784         0.0072
     22 C10        -3.4080   11.0590   24.9360 C.ar      1 784        -0.0548
     23 C17        -3.5220   10.5950   26.2500 C.ar      1 784        -0.0632
     24 C20        -2.7430    9.5130   26.6800 C.ar      1 784         0.0188
     25 C22        -2.8860    9.0100   28.0880 C.cat     1 784         0.2318
     26 N25        -2.3120    7.9490   28.5070 N.pl3     1 784        -0.2729
     27 N24        -3.6760    9.6910   28.9020 N.pl3     1 784        -0.2729
     28 C16        -1.8580    8.9050   25.7830 C.ar      1 784        -0.0632
     29 C9         -1.7380    9.3760   24.4740 C.ar      1 784        -0.0548
     30 H1         -7.4140   11.1627   20.1403 H         1 784         0.0578
     31 H2         -7.4860   10.3217   21.7259 H         1 784         0.0578
     32 H3         -6.0911    8.4690   20.3703 H         1 784         0.0340
     33 H4         -6.9353    9.2338   18.9814 H         1 784         0.0340
     34 H5         -9.0658    9.0630   20.4261 H         1 784         0.0816
     35 H6         -8.1191    7.9427   21.4632 H         1 784         0.0816
     36 H7         -8.8768    6.6544   17.5515 H         1 784         0.0778
     37 H8         -7.5485    7.8189   17.8771 H         1 784         0.0778
     38 H9         -9.2579    8.3678   17.9327 H         1 784         0.0778
     39 H10       -10.1047    6.6147   20.9708 H         1 784         0.0778
     40 H11       -10.3532    6.0082   19.2984 H         1 784         0.0778
     41 H12       -10.6724    7.7331   19.6849 H         1 784         0.0778
     42 H13        -6.7491    6.2573   19.5734 H         1 784         0.0778
     43 H14        -8.1381    5.1882   19.1806 H         1 784         0.0778
     44 H15        -7.8681    5.7245   20.8736 H         1 784         0.0778
     45 H16        -2.6363   10.8370   19.5640 H         1 784         0.0632
     46 H17        -2.8507    9.2235   21.3327 H         1 784         0.0653
     47 H18        -3.5991   13.2627   20.7777 H         1 784         0.0882
     48 H19        -1.7410   13.8799   19.6156 H         1 784         0.0323
     49 H20        -0.9957   12.2524   19.7658 H         1 784         0.0323
     50 H21        -0.5580   14.6532   21.4159 H         1 784         0.0319
     51 H22         0.3492   13.1027   21.4113 H         1 784         0.0319
     52 H23        -1.6470   14.0355   23.3201 H         1 784         0.0815
     53 H24        -0.6837   12.5198   23.3577 H         1 784         0.0815
     54 H25        -3.3573   12.6918   22.9359 H         1 784         0.2057
     55 H26        -1.3181   10.6852   22.3628 H         1 784         0.1048
     56 H27        -4.0128   11.8969   24.6086 H         1 784         0.0559
     57 H28        -4.2128   11.0723   26.9356 H         1 784         0.0599
     58 H29        -2.4409    7.6446   29.4825 H         1 784         0.3180
     59 H30        -1.7201    7.3976   27.8694 H         1 784         0.3180
     60 H31        -4.1419   10.5476   28.5702 H         1 784         0.3180
     61 H32        -3.8251    9.3646   29.8675 H         1 784         0.3180
     62 H33        -1.2602    8.0608   26.1071 H         1 784         0.0599
     63 H34        -1.0370    8.9068   23.7932 H         1 784         0.0559
@<TRIPOS>BOND
     1    1    2 2  
     2    2    3 am 
     3    2   11 1  
     4    3    4 1  
     5    3   13 am 
     6    4    5 1  
     7    5    6 1  
     8    6    7 1  
     9    7    8 1  
    10    7    9 1  
    11    7   10 1  
    12   11   12 1  
    13   11   15 1  
    14   12   13 1  
    15   12   20 1  
    16   13   14 2  
    17   15   16 1  
    18   15   19 1  
    19   16   17 1  
    20   17   18 1  
    21   18   19 1  
    22   19   20 1  
    23   20   21 1  
    24   21   22 ar 
    25   21   29 ar 
    26   22   23 ar 
    27   23   24 ar 
    28   24   25 1  
    29   24   28 ar 
    30   25   26 ar 
    31   25   27 ar 
    32   28   29 ar 
    33    4   30 1  
    34    4   31 1  
    35    5   32 1  
    36    5   33 1  
    37    6   34 1  
    38    6   35 1  
    39    8   36 1  
    40    8   37 1  
    41    8   38 1  
    42    9   39 1  
    43    9   40 1  
    44    9   41 1  
    45   10   42 1  
    46   10   43 1  
    47   10   44 1  
    48   11   45 1  
    49   12   46 1  
    50   15   47 1  
    51   16   48 1  
    52   16   49 1  
    53   17   50 1  
    54   17   51 1  
    55   18   52 1  
    56   18   53 1  
    57   19   54 1  
    58   20   55 1  
    59   22   56 1  
    60   23   57 1  
    61   26   58 1  
    62   26   59 1  
    63   27   60 1  
    64   27   61 1  
    65   28   62 1  
    66   29   63 1  
@<TRIPOS>SUBSTRUCTURE
     1 784         1

