### 
### Created by X-TOOL on Mon Sep 10 21:12:47 2018
### 

@<TRIPOS>MOLECULE
2bow_ligand
   45    48     1     0     0
SMALL
GAST_HUCK


@<TRIPOS>ATOM
      1 P         -16.4450   73.0740   26.2110 P.3       1 P4P         0.0123
      2 C1A       -16.2540   74.3750   25.0320 C.ar      1 P4P         0.0071
      3 C2A       -16.9720   75.5720   25.0900 C.ar      1 P4P        -0.0533
      4 C3A       -16.7750   76.5600   24.1230 C.ar      1 P4P        -0.0664
      5 C4A       -15.8540   76.3580   23.0920 C.ar      1 P4P        -0.0673
      6 C5A       -15.1320   75.1680   23.0250 C.ar      1 P4P        -0.0664
      7 C6A       -15.3280   74.1800   23.9910 C.ar      1 P4P        -0.0533
      8 C1C       -15.2600   73.2540   27.5210 C.ar      1 P4P         0.0071
      9 C6C       -13.9350   73.5510   27.1780 C.ar      1 P4P        -0.0533
     10 C5C       -12.9550   73.6990   28.1720 C.ar      1 P4P        -0.0664
     11 C4C       -13.2960   73.5410   29.5070 C.ar      1 P4P        -0.0673
     12 C3C       -14.6110   73.2390   29.8610 C.ar      1 P4P        -0.0664
     13 C2C       -15.5890   73.0950   28.8660 C.ar      1 P4P        -0.0533
     14 C1D       -16.2090   71.5070   25.3150 C.ar      1 P4P         0.0071
     15 C6D       -16.7810   71.4080   24.0390 C.ar      1 P4P        -0.0533
     16 C5D       -16.6430   70.2400   23.2870 C.ar      1 P4P        -0.0664
     17 C4D       -15.9390   69.1570   23.8100 C.ar      1 P4P        -0.0673
     18 C3D       -15.3730   69.2320   25.0840 C.ar      1 P4P        -0.0664
     19 C2D       -15.5120   70.4070   25.8350 C.ar      1 P4P        -0.0533
     20 C6B       -18.8700   71.9540   26.6410 C.ar      1 P4P        -0.0533
     21 C5B       -20.1420   71.8310   27.1990 C.ar      1 P4P        -0.0664
     22 C4B       -20.5890   72.7850   28.1040 C.ar      1 P4P        -0.0673
     23 C3B       -19.7660   73.8680   28.4510 C.ar      1 P4P        -0.0664
     24 C2B       -18.4830   73.9880   27.8850 C.ar      1 P4P        -0.0533
     25 C1B       -18.0320   73.0320   26.9750 C.ar      1 P4P         0.0071
     26 H1        -17.6856   75.7346   25.8896 H         1 P4P         0.0598
     27 H2        -17.3376   77.4853   24.1724 H         1 P4P         0.0600
     28 H3        -15.7010   77.1273   22.3438 H         1 P4P         0.0570
     29 H4        -14.4192   75.0099   22.2238 H         1 P4P         0.0600
     30 H5        -14.7630   73.2563   23.9389 H         1 P4P         0.0598
     31 H6        -13.6637   73.6677   26.1350 H         1 P4P         0.0598
     32 H7        -11.9337   73.9363   27.8967 H         1 P4P         0.0600
     33 H8        -12.5401   73.6523   30.2759 H         1 P4P         0.0570
     34 H9        -14.8769   73.1157   30.9046 H         1 P4P         0.0600
     35 H10       -16.6092   72.8581   29.1454 H         1 P4P         0.0598
     36 H11       -17.3355   72.2461   23.6325 H         1 P4P         0.0598
     37 H12       -17.0826   70.1756   22.2982 H         1 P4P         0.0600
     38 H13       -15.8303   68.2513   23.2244 H         1 P4P         0.0570
     39 H14       -14.8293   68.3865   25.4898 H         1 P4P         0.0600
     40 H15       -15.0771   70.4660   26.8262 H         1 P4P         0.0598
     41 H16       -18.5217   71.2059   25.9380 H         1 P4P         0.0598
     42 H17       -20.7780   70.9960   26.9281 H         1 P4P         0.0600
     43 H18       -21.5757   72.6931   28.5434 H         1 P4P         0.0570
     44 H19       -20.1189   74.6125   29.1555 H         1 P4P         0.0600
     45 H20       -17.8462   74.8223   28.1559 H         1 P4P         0.0598
@<TRIPOS>BOND
     1    1    2 1  
     2    1    8 1  
     3    1   14 1  
     4   25    1 1  
     5    2    3 ar 
     6    2    7 ar 
     7    3    4 ar 
     8    4    5 ar 
     9    6    5 ar 
    10    7    6 ar 
    11    8    9 ar 
    12    8   13 ar 
    13    9   10 ar 
    14   10   11 ar 
    15   12   11 ar 
    16   13   12 ar 
    17   14   15 ar 
    18   14   19 ar 
    19   15   16 ar 
    20   16   17 ar 
    21   18   17 ar 
    22   19   18 ar 
    23   20   21 ar 
    24   20   25 ar 
    25   21   22 ar 
    26   22   23 ar 
    27   23   24 ar 
    28   24   25 ar 
    29    3   26 1  
    30    4   27 1  
    31    5   28 1  
    32    6   29 1  
    33    7   30 1  
    34    9   31 1  
    35   10   32 1  
    36   11   33 1  
    37   12   34 1  
    38   13   35 1  
    39   15   36 1  
    40   16   37 1  
    41   17   38 1  
    42   18   39 1  
    43   19   40 1  
    44   20   41 1  
    45   21   42 1  
    46   22   43 1  
    47   23   44 1  
    48   24   45 1  
@<TRIPOS>SUBSTRUCTURE
     1 P4P         1

