### 
### Created by X-TOOL on Mon Sep 10 21:12:53 2018
### 

@<TRIPOS>MOLECULE
2bpm_ligand
   46    49     1     0     0
SMALL
GAST_HUCK


@<TRIPOS>ATOM
      1 N1         -3.0630  202.6260  113.3500 N.am      1 529        -0.2075
      2 C2         -2.6540  201.9980  114.6350 C.3       1 529         0.0747
      3 C3         -1.3800  201.2110  114.3000 C.3       1 529         0.0567
      4 N4         -1.2230  201.4860  112.8790 N.am      1 529        -0.2656
      5 C5         -2.1620  202.2610  112.4030 C.2       1 529         0.2881
      6 N6        -12.2960  204.2660  109.2250 N.2       1 529        -0.2598
      7 N7        -11.1480  204.9150  109.4510 N.pl3     1 529        -0.2147
      8 C8        -10.8180  204.7010  110.7590 C.2       1 529         0.1745
      9 C9        -11.7870  203.8950  111.3530 C.2       1 529        -0.0320
     10 C10       -12.7150  203.6320  110.3740 C.2       1 529        -0.0160
     11 C11       -14.0020  202.8030  110.4920 C.3       1 529        -0.0099
     12 C12       -14.1600  201.9880  111.7900 C.3       1 529        -0.0398
     13 C13       -15.2290  203.0030  111.3220 C.3       1 529        -0.0398
     14 N14        -9.6380  205.2810  111.3590 N.am      1 529        -0.2050
     15 C15        -9.1350  205.2030  112.6030 C.2       1 529         0.2205
     16 C16        -7.8650  206.0490  112.8610 C.3       1 529         0.0787
     17 O17        -9.6490  204.5320  113.5130 O.2       1 529        -0.3806
     18 C18        -6.6220  205.1560  113.0260 C.ar      1 529        -0.0357
     19 C19        -5.8220  204.9100  111.8750 C.ar      1 529        -0.0708
     20 C20        -4.6790  204.1010  111.9720 C.ar      1 529        -0.0470
     21 C21        -4.2900  203.5030  113.2230 C.ar      1 529         0.0631
     22 C22        -5.1140  203.7670  114.3740 C.ar      1 529        -0.0470
     23 C23        -6.2540  204.5750  114.2810 C.ar      1 529        -0.0708
     24 O24        -2.1580  202.5840  111.2010 O.2       1 529        -0.3910
     25 C25        -8.0950  206.9860  114.0850 C.3       1 529        -0.0371
     26 H1         -3.4404  201.3231  115.0038 H         1 529         0.0600
     27 H2         -2.4458  202.7674  115.3931 H         1 529         0.0600
     28 H3         -1.5133  200.1353  114.4871 H         1 529         0.0542
     29 H4         -0.5187  201.5795  114.8765 H         1 529         0.0542
     30 H5         -0.4751  201.1203  112.3250 H         1 529         0.1852
     31 H6        -10.6141  205.4709  108.7678 H         1 529         0.2433
     32 H7        -11.8053  203.5445  112.3839 H         1 529         0.0127
     33 H8        -14.1647  202.3236  109.5154 H         1 529         0.0442
     34 H9        -13.5300  202.2080  112.6645 H         1 529         0.0289
     35 H10       -14.3628  200.9077  111.7466 H         1 529         0.0289
     36 H11       -16.2022  202.6438  110.9562 H         1 529         0.0289
     37 H12       -15.3694  203.9441  111.8740 H         1 529         0.0289
     38 H13        -9.0965  205.8434  110.7341 H         1 529         0.2327
     39 H14        -7.6975  206.6857  111.9798 H         1 529         0.0670
     40 H15        -6.0957  205.3480  110.9220 H         1 529         0.0524
     41 H16        -4.0774  203.9229  111.0880 H         1 529         0.0486
     42 H17        -4.8469  203.3322  115.3304 H         1 529         0.0486
     43 H18        -6.8588  204.7607  115.1612 H         1 529         0.0524
     44 H19        -8.9924  207.5988  113.9141 H         1 529         0.0275
     45 H20        -7.2218  207.6424  114.2135 H         1 529         0.0275
     46 H21        -8.2333  206.3781  114.9913 H         1 529         0.0275
@<TRIPOS>BOND
     1    1    2 1  
     2    1    5 am 
     3   21    1 1  
     4    2    3 1  
     5    4    3 1  
     6    5    4 am 
     7    5   24 2  
     8    7    6 1  
     9   10    6 2  
    10    8    7 1  
    11    8    9 2  
    12   14    8 1  
    13    9   10 1  
    14   10   11 1  
    15   11   12 1  
    16   11   13 1  
    17   13   12 1  
    18   15   14 am 
    19   16   15 1  
    20   15   17 2  
    21   18   16 1  
    22   16   25 1  
    23   19   18 ar 
    24   18   23 ar 
    25   20   19 ar 
    26   20   21 ar 
    27   21   22 ar 
    28   22   23 ar 
    29    2   26 1  
    30    2   27 1  
    31    3   28 1  
    32    3   29 1  
    33    4   30 1  
    34    7   31 1  
    35    9   32 1  
    36   11   33 1  
    37   12   34 1  
    38   12   35 1  
    39   13   36 1  
    40   13   37 1  
    41   14   38 1  
    42   16   39 1  
    43   19   40 1  
    44   20   41 1  
    45   22   42 1  
    46   23   43 1  
    47   25   44 1  
    48   25   45 1  
    49   25   46 1  
@<TRIPOS>SUBSTRUCTURE
     1 529         1

