### 
### Created by X-TOOL on Mon Sep 10 21:12:47 2018
### 

@<TRIPOS>MOLECULE
2bpv_ligand
   95    98     1     0     0
SMALL
GAST_HUCK


@<TRIPOS>ATOM
      1 C1          9.1790   24.0720    4.1940 C.3       1 1IN         0.0933
      2 C2         10.3520   24.9650    4.6250 C.3       1 1IN         0.0891
      3 C3         10.4030   24.9800    6.1450 C.2       1 1IN         0.2271
      4 O4         18.5740   19.9240    4.9050 O.3       1 1IN        -0.3895
      5 O5          7.9940   24.6190    0.8360 O.2       1 1IN        -0.3885
      6 C7          8.9360   25.3950    8.7340 C.3       1 1IN        -0.0396
      7 C8         11.5130   24.4110    2.5520 C.3       1 1IN        -0.0089
      8 C9         10.3200   23.6040    2.0830 C.3       1 1IN         0.0733
      9 C10        12.7820   25.3030    4.4560 C.3       1 1IN        -0.0029
     10 C11        13.9320   24.3120    4.6850 C.3       1 1IN         0.0974
     11 C12        14.0160   23.8310    6.1350 C.3       1 1IN        -0.0003
     12 C13        15.1810   22.8870    6.4560 C.3       1 1IN         0.0607
     13 C14        15.2650   22.7560    7.9780 C.3       1 1IN         0.0007
     14 C15        16.3790   21.8410    8.4250 C.ar      1 1IN        -0.0405
     15 C16        17.7130   22.1450    8.1520 C.ar      1 1IN        -0.0602
     16 C19        17.0270   19.8330    9.6040 C.ar      1 1IN        -0.0686
     17 C20        16.0300   20.6850    9.1320 C.ar      1 1IN        -0.0602
     18 C21        14.9790   21.5070    5.8020 C.2       1 1IN         0.1814
     19 C22        16.1910   19.5270    5.0220 C.3       1 1IN         0.0704
     20 C24        17.6090   17.7380    4.5580 C.3       1 1IN        -0.0244
     21 C27         5.5540   25.1720    2.1490 C.2       1 1IN        -0.0301
     22 C30        15.7440   19.0140    3.6240 C.3       1 1IN        -0.0183
     23 C31         8.0320   24.5460    2.0640 C.2       1 1IN         0.1978
     24 C32         3.0940   24.9920    2.1330 C.ar      1 1IN        -0.0318
     25 C33         1.8720   24.9440    2.8110 C.ar      1 1IN        -0.0314
     26 C34         1.9020   24.9680    4.2130 C.ar      1 1IN         0.0131
     27 C35         4.2320   25.0690    4.2470 C.ar      1 1IN         0.0223
     28 N1          9.1250   24.1110    2.7380 N.am      1 1IN        -0.2614
     29 O1         10.7290   23.9600    6.7590 O.2       1 1IN        -0.3908
     30 N2         10.0420   26.1670    6.6910 N.am      1 1IN        -0.2770
     31 C4          9.9590   26.3750    8.1290 C.3       1 1IN         0.0448
     32 C5          9.4660   27.8180    8.3590 C.3       1 1IN        -0.0396
     33 C6         11.3400   26.2050    8.7790 C.3       1 1IN        -0.0396
     34 N3         11.6290   24.5080    4.0130 N.4       1 1IN         0.2588
     35 O2         15.1430   24.9890    4.3710 O.3       1 1IN        -0.3864
     36 C17        18.7140   21.2920    8.6110 C.ar      1 1IN        -0.0686
     37 C18        18.3710   20.1370    9.3370 C.ar      1 1IN        -0.0687
     38 O3         13.8740   20.9640    5.7880 O.2       1 1IN        -0.3966
     39 N4         16.0820   20.9730    5.2500 N.am      1 1IN        -0.2808
     40 C23        17.5960   19.0150    5.4040 C.3       1 1IN         0.0783
     41 C25        16.8530   18.0060    3.3020 C.3       1 1IN        -0.0459
     42 C29        15.7270   20.1160    2.6030 C.3       1 1IN        -0.0602
     43 C26         6.8300   24.9450    2.8330 C.2       1 1IN         0.0150
     44 C28         4.2870   25.0620    2.8540 C.ar      1 1IN         0.0122
     45 N5          3.0610   25.0130    4.8690 N.ar      1 1IN        -0.2931
     46 H1          9.3436   23.0403    4.5383 H         1 1IN         0.0604
     47 H2          8.2383   24.4541    4.6171 H         1 1IN         0.0604
     48 H3         10.1604   25.9901    4.2751 H         1 1IN         0.1120
     49 H4         19.4328   19.5206    4.9520 H         1 1IN         0.2099
     50 H5          8.8746   25.5537    9.8208 H         1 1IN         0.0254
     51 H6          9.2541   24.3616    8.5317 H         1 1IN         0.0254
     52 H7          7.9487   25.5699    8.2816 H         1 1IN         0.0254
     53 H8         12.4262   23.9371    2.1628 H         1 1IN         0.0835
     54 H9         11.4251   25.4284    2.1433 H         1 1IN         0.0835
     55 H10        10.4639   22.5453    2.3444 H         1 1IN         0.0574
     56 H11        10.2134   23.7013    0.9925 H         1 1IN         0.0574
     57 H12        12.5431   25.8307    5.3911 H         1 1IN         0.0840
     58 H13        13.0590   26.0345    3.6826 H         1 1IN         0.0840
     59 H14        13.8001   23.4428    4.0239 H         1 1IN         0.0648
     60 H15        13.0795   23.3045    6.3712 H         1 1IN         0.0321
     61 H16        14.1114   24.7169    6.7800 H         1 1IN         0.0321
     62 H17        16.1164   23.3230    6.0753 H         1 1IN         0.0561
     63 H18        14.3104   22.3552    8.3496 H         1 1IN         0.0453
     64 H19        15.4359   23.7540    8.4079 H         1 1IN         0.0453
     65 H20        17.9678   23.0355    7.5887 H         1 1IN         0.0557
     66 H21        16.7675   18.9461   10.1706 H         1 1IN         0.0599
     67 H22        14.9866   20.4526    9.3122 H         1 1IN         0.0557
     68 H23        15.4915   19.0658    5.7347 H         1 1IN         0.0584
     69 H24        18.6460   17.4612    4.3170 H         1 1IN         0.0291
     70 H25        17.1302   16.9181    5.1135 H         1 1IN         0.0291
     71 H26         5.5547   25.4284    1.0906 H         1 1IN         0.0756
     72 H27        14.7555   18.5336    3.6683 H         1 1IN         0.0321
     73 H28         3.1147   24.9749    1.0493 H         1 1IN         0.0763
     74 H29         0.9334   24.8901    2.2714 H         1 1IN         0.0714
     75 H30         0.9718   24.9497    4.7693 H         1 1IN         0.0838
     76 H31         5.1484   25.1203    4.8238 H         1 1IN         0.0857
     77 H32         9.8242   26.9296    6.0819 H         1 1IN         0.1859
     78 H33         9.3908   28.0120    9.4391 H         1 1IN         0.0254
     79 H34         8.4775   27.9463    7.8938 H         1 1IN         0.0254
     80 H35        10.1780   28.5250    7.9082 H         1 1IN         0.0254
     81 H36        11.2568   26.3658    9.8640 H         1 1IN         0.0254
     82 H37        12.0391   26.9392    8.3521 H         1 1IN         0.0254
     83 H38        11.7132   25.1883    8.5866 H         1 1IN         0.0254
     84 H39        11.7894   23.5711    4.3484 H         1 1IN         0.2058
     85 H40        15.1209   25.2709    3.4641 H         1 1IN         0.2100
     86 H41        19.7549   21.5177    8.4092 H         1 1IN         0.0599
     87 H42        19.1521   19.4754    9.6937 H         1 1IN         0.0559
     88 H43        16.8407   21.5705    4.9904 H         1 1IN         0.1855
     89 H44        17.7244   18.8333    6.4813 H         1 1IN         0.0616
     90 H45        17.5287   18.4243    2.5414 H         1 1IN         0.0269
     91 H46        16.4108   17.0717    2.9257 H         1 1IN         0.0269
     92 H47        14.9269   20.8302    2.8476 H         1 1IN         0.0233
     93 H48        15.5451   19.6891    1.6057 H         1 1IN         0.0233
     94 H49        16.6965   20.6357    2.6082 H         1 1IN         0.0233
     95 H50         6.8952   25.0703    3.9128 H         1 1IN         0.0699
@<TRIPOS>BOND
     1    1   28 1  
     2    1    2 1  
     3    2   34 1  
     4    2    3 1  
     5    3   30 am 
     6    3   29 2  
     7   30   31 1  
     8   31    6 1  
     9   31   33 1  
    10   31   32 1  
    11   34    9 1  
    12   34    7 1  
    13    7    8 1  
    14    8   28 1  
    15   28   23 am 
    16   23   43 1  
    17   23    5 2  
    18   43   21 2  
    19   21   44 1  
    20   44   24 ar 
    21   44   27 ar 
    22   27   45 ar 
    23   45   26 ar 
    24   26   25 ar 
    25   25   24 ar 
    26    9   10 1  
    27   10   35 1  
    28   10   11 1  
    29   11   12 1  
    30   12   18 1  
    31   12   13 1  
    32   13   14 1  
    33   14   17 ar 
    34   14   15 ar 
    35   15   36 ar 
    36   36   37 ar 
    37   37   16 ar 
    38   16   17 ar 
    39   18   38 2  
    40   18   39 am 
    41   39   19 1  
    42   19   40 1  
    43   19   22 1  
    44   22   41 1  
    45   22   42 1  
    46   41   20 1  
    47   20   40 1  
    48   40    4 1  
    49    1   46 1  
    50    1   47 1  
    51    2   48 1  
    52    4   49 1  
    53    6   50 1  
    54    6   51 1  
    55    6   52 1  
    56    7   53 1  
    57    7   54 1  
    58    8   55 1  
    59    8   56 1  
    60    9   57 1  
    61    9   58 1  
    62   10   59 1  
    63   11   60 1  
    64   11   61 1  
    65   12   62 1  
    66   13   63 1  
    67   13   64 1  
    68   15   65 1  
    69   16   66 1  
    70   17   67 1  
    71   19   68 1  
    72   20   69 1  
    73   20   70 1  
    74   21   71 1  
    75   22   72 1  
    76   24   73 1  
    77   25   74 1  
    78   26   75 1  
    79   27   76 1  
    80   30   77 1  
    81   32   78 1  
    82   32   79 1  
    83   32   80 1  
    84   33   81 1  
    85   33   82 1  
    86   33   83 1  
    87   34   84 1  
    88   35   85 1  
    89   36   86 1  
    90   37   87 1  
    91   39   88 1  
    92   40   89 1  
    93   41   90 1  
    94   41   91 1  
    95   42   92 1  
    96   42   93 1  
    97   42   94 1  
    98   43   95 1  
@<TRIPOS>SUBSTRUCTURE
     1 1IN         1

