### 
### Created by X-TOOL on Mon Sep 10 21:12:46 2018
### 

@<TRIPOS>MOLECULE
2bpx_ligand
   94    98     1     0     0
SMALL
GAST_HUCK


@<TRIPOS>ATOM
      1 N1          9.3350   24.4680    3.1140 N.4       1 MK1         0.2576
      2 C1          9.4030   24.7380    4.5690 C.3       1 MK1         0.0316
      3 C2         10.7000   25.4630    4.9540 C.3       1 MK1         0.1092
      4 C3         10.7510   25.6770    6.4560 C.2       1 MK1         0.2304
      5 O1         11.1530   24.7800    7.1970 O.2       1 MK1        -0.3906
      6 N2         10.3340   26.8990    6.8710 N.am      1 MK1        -0.2769
      7 C4         10.0620   27.2130    8.2730 C.3       1 MK1         0.0448
      8 C5          9.4680   28.6120    8.3850 C.3       1 MK1        -0.0396
      9 C6         11.3670   27.1240    9.1060 C.3       1 MK1        -0.0396
     10 C7          8.9380   26.3030    8.7870 C.3       1 MK1        -0.0396
     11 N3         11.8610   24.6450    4.5220 N.4       1 MK1         0.2635
     12 C8         11.7780   24.4290    3.0710 C.3       1 MK1         0.0117
     13 C9         10.5050   23.6980    2.6900 C.3       1 MK1         0.0112
     14 C10        13.0700   25.4950    4.5650 C.3       1 MK1        -0.0026
     15 C11        14.3490   24.8390    5.1220 C.3       1 MK1         0.0974
     16 O2         15.3090   25.6670    4.8290 O.3       1 MK1        -0.3864
     17 C12        14.4490   24.5420    6.6320 C.3       1 MK1        -0.0003
     18 C13        15.6490   23.7130    7.1090 C.3       1 MK1         0.0608
     19 C14        15.7550   23.6090    8.6300 C.3       1 MK1         0.0007
     20 C15        16.9130   22.7260    9.0480 C.ar      1 MK1        -0.0405
     21 C16        18.2390   22.9930    8.6660 C.ar      1 MK1        -0.0602
     22 C17        19.2700   22.0890    8.9830 C.ar      1 MK1        -0.0686
     23 C18        18.9350   20.9140    9.6970 C.ar      1 MK1        -0.0687
     24 C19        17.6150   20.6460   10.1220 C.ar      1 MK1        -0.0686
     25 C20        16.6110   21.5740    9.7870 C.ar      1 MK1        -0.0602
     26 C21        15.5650   22.3400    6.5350 C.2       1 MK1         0.1831
     27 O3         14.5180   21.6910    6.5700 O.2       1 MK1        -0.3964
     28 N4         16.7330   21.8940    6.0900 N.am      1 MK1        -0.2707
     29 C22        16.8990   20.4760    5.8320 C.3       1 MK1         0.1006
     30 C23        18.3450   19.9970    6.0790 C.3       1 MK1         0.0951
     31 O4         19.2450   20.7140    5.4160 O.3       1 MK1        -0.3857
     32 C24        18.4690   18.6210    5.4960 C.3       1 MK1         0.0085
     33 C25        17.6110   18.9380    4.2480 C.ar      1 MK1        -0.0361
     34 C26        17.5970   18.2200    3.0320 C.ar      1 MK1        -0.0667
     35 C27        16.6960   18.6660    2.0380 C.ar      1 MK1        -0.0755
     36 C28        15.8570   19.8020    2.2470 C.ar      1 MK1        -0.0754
     37 C29        15.8770   20.4950    3.4800 C.ar      1 MK1        -0.0646
     38 C30        16.7610   20.0340    4.4520 C.ar      1 MK1        -0.0133
     39 C31         8.2090   23.5460    2.9300 C.3       1 MK1         0.0087
     40 C32         6.8650   24.2590    2.8410 C.ar      1 MK1         0.0294
     41 C33         6.6250   25.2420    1.8560 C.ar      1 MK1         0.0176
     42 N5          5.4280   25.8340    1.7700 N.ar      1 MK1        -0.3042
     43 C34         4.4200   25.5290    2.6030 C.ar      1 MK1         0.0042
     44 C35         4.5560   24.5550    3.6240 C.ar      1 MK1        -0.0403
     45 C36         5.8140   23.9240    3.7240 C.ar      1 MK1        -0.0354
     46 H1          9.2330   25.3190    2.5835 H         1 MK1         0.2056
     47 H2          9.3550   23.7821    5.1112 H         1 MK1         0.0899
     48 H3          8.5460   25.3654    4.8552 H         1 MK1         0.0899
     49 H4         10.7343   26.4396    4.4489 H         1 MK1         0.1155
     50 H5         10.2068   27.6177    6.1874 H         1 MK1         0.1859
     51 H6          9.2661   28.8411    9.4418 H         1 MK1         0.0254
     52 H7          8.5290   28.6585    7.8139 H         1 MK1         0.0254
     53 H8         10.1801   29.3462    7.9802 H         1 MK1         0.0254
     54 H9         11.1479   27.3623   10.1573 H         1 MK1         0.0254
     55 H10        12.1025   27.8414    8.7131 H         1 MK1         0.0254
     56 H11        11.7763   26.1052    9.0386 H         1 MK1         0.0254
     57 H12         8.7306   26.5365    9.8417 H         1 MK1         0.0254
     58 H13         9.2482   25.2514    8.6984 H         1 MK1         0.0254
     59 H14         8.0296   26.4690    8.1893 H         1 MK1         0.0254
     60 H15        11.9412   23.7936    5.0556 H         1 MK1         0.2061
     61 H16        12.6434   23.8316    2.7484 H         1 MK1         0.0868
     62 H17        11.7958   25.4044    2.5628 H         1 MK1         0.0868
     63 H18        10.4758   23.5636    1.5986 H         1 MK1         0.0868
     64 H19        10.4901   22.7139    3.1812 H         1 MK1         0.0868
     65 H20        12.8422   26.3697    5.1919 H         1 MK1         0.0840
     66 H21        13.2835   25.8256    3.5378 H         1 MK1         0.0840
     67 H22        14.4942   23.8865    4.5913 H         1 MK1         0.0648
     68 H23        15.3536   25.7776    3.8865 H         1 MK1         0.2100
     69 H24        13.5369   24.0005    6.9232 H         1 MK1         0.0321
     70 H25        14.4854   25.5080    7.1569 H         1 MK1         0.0321
     71 H26        16.5637   24.1977    6.7370 H         1 MK1         0.0561
     72 H27        14.8207   23.1835    9.0250 H         1 MK1         0.0453
     73 H28        15.9047   24.6157    9.0473 H         1 MK1         0.0453
     74 H29        18.4694   23.9024    8.1229 H         1 MK1         0.0557
     75 H30        20.2940   22.2876    8.6879 H         1 MK1         0.0599
     76 H31        19.7158   20.1974    9.9248 H         1 MK1         0.0559
     77 H32        17.3820   19.7522   10.6893 H         1 MK1         0.0599
     78 H33        15.5902   21.3952   10.1049 H         1 MK1         0.0557
     79 H34        17.4903   22.5283    5.9342 H         1 MK1         0.1880
     80 H35        16.1875   19.9374    6.4752 H         1 MK1         0.0732
     81 H36        18.5635   20.0031    7.1571 H         1 MK1         0.0659
     82 H37        20.1143   20.3793    5.6021 H         1 MK1         0.2103
     83 H38        18.0286   17.8412    6.1347 H         1 MK1         0.0439
     84 H39        19.5059   18.3499    5.2483 H         1 MK1         0.0439
     85 H40        18.2462   17.3674    2.8685 H         1 MK1         0.0537
     86 H41        16.6410   18.1332    1.0956 H         1 MK1         0.0541
     87 H42        15.1986   20.1366    1.4535 H         1 MK1         0.0541
     88 H43        15.2323   21.3476    3.6603 H         1 MK1         0.0538
     89 H44         8.1816   22.8513    3.7825 H         1 MK1         0.0997
     90 H45         8.3677   22.9797    2.0004 H         1 MK1         0.0997
     91 H46         7.4142   25.5184    1.1662 H         1 MK1         0.0767
     92 H47         3.4725   26.0437    2.4913 H         1 MK1         0.0767
     93 H48         3.7382   24.3085    4.2914 H         1 MK1         0.0693
     94 H49         5.9763   23.1725    4.4881 H         1 MK1         0.0680
@<TRIPOS>BOND
     1    1    2 1  
     2    1   13 1  
     3    1   39 1  
     4    2    3 1  
     5    3    4 1  
     6    3   11 1  
     7    4    5 2  
     8    4    6 am 
     9    6    7 1  
    10    7    8 1  
    11    7    9 1  
    12    7   10 1  
    13   11   12 1  
    14   11   14 1  
    15   12   13 1  
    16   14   15 1  
    17   15   16 1  
    18   15   17 1  
    19   17   18 1  
    20   18   19 1  
    21   18   26 1  
    22   19   20 1  
    23   20   21 ar 
    24   20   25 ar 
    25   21   22 ar 
    26   22   23 ar 
    27   23   24 ar 
    28   24   25 ar 
    29   26   27 2  
    30   26   28 am 
    31   28   29 1  
    32   29   30 1  
    33   29   38 1  
    34   30   31 1  
    35   30   32 1  
    36   32   33 1  
    37   33   34 ar 
    38   33   38 ar 
    39   34   35 ar 
    40   35   36 ar 
    41   36   37 ar 
    42   37   38 ar 
    43   39   40 1  
    44   40   41 ar 
    45   40   45 ar 
    46   41   42 ar 
    47   42   43 ar 
    48   43   44 ar 
    49   44   45 ar 
    50    1   46 1  
    51    2   47 1  
    52    2   48 1  
    53    3   49 1  
    54    6   50 1  
    55    8   51 1  
    56    8   52 1  
    57    8   53 1  
    58    9   54 1  
    59    9   55 1  
    60    9   56 1  
    61   10   57 1  
    62   10   58 1  
    63   10   59 1  
    64   11   60 1  
    65   12   61 1  
    66   12   62 1  
    67   13   63 1  
    68   13   64 1  
    69   14   65 1  
    70   14   66 1  
    71   15   67 1  
    72   16   68 1  
    73   17   69 1  
    74   17   70 1  
    75   18   71 1  
    76   19   72 1  
    77   19   73 1  
    78   21   74 1  
    79   22   75 1  
    80   23   76 1  
    81   24   77 1  
    82   25   78 1  
    83   28   79 1  
    84   29   80 1  
    85   30   81 1  
    86   31   82 1  
    87   32   83 1  
    88   32   84 1  
    89   34   85 1  
    90   35   86 1  
    91   36   87 1  
    92   37   88 1  
    93   39   89 1  
    94   39   90 1  
    95   41   91 1  
    96   43   92 1  
    97   44   93 1  
    98   45   94 1  
@<TRIPOS>SUBSTRUCTURE
     1 MK1         1

