### 
### Created by X-TOOL on Mon Sep 10 21:12:54 2018
### 

@<TRIPOS>MOLECULE
2bq6_ligand
   65    69     1     0     0
SMALL
GAST_HUCK


@<TRIPOS>ATOM
      1 C1          1.4830    7.4450   25.1880 C.ar      1 IIB        -0.0718
      2 C2          2.6010    7.7340   24.3340 C.ar      1 IIB        -0.0202
      3 C3          3.2800    6.6720   23.6180 C.ar      1 IIB         0.0862
      4 C4          2.7860    5.3150   23.8010 C.ar      1 IIB         0.0084
      5 C5          1.6640    5.0540   24.6630 C.ar      1 IIB        -0.0752
      6 C6          1.0130    6.1090   25.3550 C.ar      1 IIB        -0.0831
      7 N7          4.3900    6.5600   22.7050 N.pl3     1 IIB        -0.2256
      8 C8          4.6050    5.2090   22.3300 C.2       1 IIB         0.1852
      9 C9          3.6100    4.4520   23.0040 C.2       1 IIB         0.1178
     10 C10         5.6200    4.7020   21.4550 C.2       1 IIB         0.2485
     11 N11         5.2800    3.7710   20.5390 N.am      1 IIB        -0.2778
     12 C12         6.2710    3.0090   19.7730 C.3       1 IIB         0.0514
     13 C13         6.0240    1.5000   19.8730 C.3       1 IIB         0.0107
     14 C14         7.1010    0.7460   19.0440 C.3       1 IIB        -0.0295
     15 N15         7.1840    1.2640   17.6260 N.4       1 IIB         0.2371
     16 C16         7.4400    2.7220   17.5370 C.3       1 IIB        -0.0295
     17 C17         6.3280    3.4770   18.2980 C.3       1 IIB         0.0107
     18 C27         8.1520    0.5710   16.6930 C.3       1 IIB        -0.0266
     19 C28         7.3500    0.0620   15.4970 C.3       1 IIB        -0.0218
     20 C32         8.9310   -0.6000   17.3480 C.3       1 IIB        -0.0218
     21 C37         5.2150    7.7200   22.2140 C.3       1 IIB         0.0957
     22 C38         6.5760    7.8990   22.8390 C.2       1 IIB         0.0559
     23 N41         7.4240    8.8780   22.4140 N.2       1 IIB        -0.1566
     24 O42         8.5000    8.7620   23.1290 O.3       1 IIB        -0.1786
     25 C43         8.3700    7.7440   24.0000 C.2       1 IIB         0.1597
     26 C44         7.1390    7.1320   23.8700 C.2       1 IIB        -0.0206
     27 C45         9.4120    7.3040   24.9570 C.2       1 IIB         0.0719
     28 S46        11.0360    7.5270   24.6110 S.3       1 IIB        -0.0237
     29 C47        11.4480    6.7720   26.0600 C.2       1 IIB         0.0959
     30 C48        10.3520    6.3440   26.8410 C.2       1 IIB        -0.0591
     31 C49         9.1310    6.6580   26.1870 C.2       1 IIB        -0.0635
     32 CL50       13.0880    6.5540   26.4870 Cl        1 IIB        -0.0551
     33 O56         6.7840    5.0730   21.5730 O.2       1 IIB        -0.3725
     34 C7          3.3940    3.0140   22.9480 C.1       1 IIB         0.0677
     35 N1          3.1850    1.8890   22.8850 N.1       1 IIB        -0.3591
     36 C11         2.9490    9.1740   24.2890 C.3       1 IIB        -0.0323
     37 H1          0.9891    8.2544   25.7134 H         1 IIB         0.0480
     38 H2          1.3104    4.0367   24.7859 H         1 IIB         0.0490
     39 H3          0.1688    5.9015   26.0025 H         1 IIB         0.0512
     40 H4          4.3096    3.5931   20.3756 H         1 IIB         0.1851
     41 H5          7.2559    3.2102   20.2197 H         1 IIB         0.0559
     42 H6          5.0249    1.2644   19.4777 H         1 IIB         0.0339
     43 H7          6.0851    1.1868   20.9257 H         1 IIB         0.0339
     44 H8          6.8455   -0.3236   19.0177 H         1 IIB         0.0815
     45 H9          8.0797    0.8774   19.5287 H         1 IIB         0.0815
     46 H10         6.2661    1.1073   17.2400 H         1 IIB         0.2036
     47 H11         7.4403    3.0323   16.4817 H         1 IIB         0.0815
     48 H12         8.4167    2.9528   17.9874 H         1 IIB         0.0815
     49 H13         6.5368    4.5566   18.2679 H         1 IIB         0.0339
     50 H14         5.3594    3.2773   17.8165 H         1 IIB         0.0339
     51 H15         8.8873    1.3115   16.3451 H         1 IIB         0.0846
     52 H16         8.0242   -0.4497   14.7944 H         1 IIB         0.0284
     53 H17         6.8683    0.9112   14.9903 H         1 IIB         0.0284
     54 H18         6.5799   -0.6422   15.8448 H         1 IIB         0.0284
     55 H19         9.6098   -1.0484   16.6076 H         1 IIB         0.0284
     56 H20         8.2199   -1.3611   17.7016 H         1 IIB         0.0284
     57 H21         9.5157   -0.2208   18.1991 H         1 IIB         0.0284
     58 H22         4.6402    8.6393   22.3993 H         1 IIB         0.0762
     59 H23         5.3604    7.5904   21.1314 H         1 IIB         0.0762
     60 H24         6.7210    6.2878   24.4164 H         1 IIB         0.0373
     61 H25        10.4316    5.8451   27.8057 H         1 IIB         0.0439
     62 H26         8.1358    6.4373   26.5701 H         1 IIB         0.0451
     63 H27         2.2587    9.7383   24.9333 H         1 IIB         0.0377
     64 H28         2.8663    9.5391   23.2547 H         1 IIB         0.0377
     65 H29         3.9802    9.3134   24.6457 H         1 IIB         0.0377
@<TRIPOS>BOND
     1    1    2 ar 
     2    1    6 ar 
     3    2    3 ar 
     4    2   36 1  
     5    3    4 ar 
     6    3    7 1  
     7    4    5 ar 
     8    4    9 1  
     9    5    6 ar 
    10    7    8 1  
    11    7   21 1  
    12    8    9 2  
    13    8   10 1  
    14    9   34 1  
    15   10   11 am 
    16   10   33 2  
    17   11   12 1  
    18   12   13 1  
    19   12   17 1  
    20   13   14 1  
    21   14   15 1  
    22   15   16 1  
    23   15   18 1  
    24   16   17 1  
    25   18   19 1  
    26   18   20 1  
    27   21   22 1  
    28   22   23 2  
    29   22   26 1  
    30   23   24 1  
    31   24   25 1  
    32   25   26 2  
    33   25   27 1  
    34   27   28 1  
    35   27   31 2  
    36   28   29 1  
    37   29   30 2  
    38   29   32 1  
    39   30   31 1  
    40   34   35 3  
    41    1   37 1  
    42    5   38 1  
    43    6   39 1  
    44   11   40 1  
    45   12   41 1  
    46   13   42 1  
    47   13   43 1  
    48   14   44 1  
    49   14   45 1  
    50   15   46 1  
    51   16   47 1  
    52   16   48 1  
    53   17   49 1  
    54   17   50 1  
    55   18   51 1  
    56   19   52 1  
    57   19   53 1  
    58   19   54 1  
    59   20   55 1  
    60   20   56 1  
    61   20   57 1  
    62   21   58 1  
    63   21   59 1  
    64   26   60 1  
    65   30   61 1  
    66   31   62 1  
    67   36   63 1  
    68   36   64 1  
    69   36   65 1  
@<TRIPOS>SUBSTRUCTURE
     1 IIB         1

