### 
### Created by X-TOOL on Mon Sep 10 21:12:54 2018
### 

@<TRIPOS>MOLECULE
2bq7_ligand
   62    65     1     0     0
SMALL
GAST_HUCK


@<TRIPOS>ATOM
      1 C1          2.9280   10.1710   25.6810 C.ar      1 IID        -0.0739
      2 C2          4.1290    9.3140   25.6060 C.ar      1 IID        -0.0401
      3 C3          4.5190    8.6980   24.3160 C.ar      1 IID         0.0722
      4 C4          3.6890    8.9150   23.0960 C.ar      1 IID        -0.0173
      5 C5          2.5090    9.7940   23.1820 C.ar      1 IID        -0.0711
      6 C6          2.1280   10.4270   24.4640 C.ar      1 IID        -0.0763
      7 N7          5.5630    7.8600   23.9420 N.pl3     1 IID        -0.2414
      8 C8          5.4000    7.5430   22.6360 C.2       1 IID         0.1364
      9 C9          4.2690    8.1570   22.0620 C.2       1 IID        -0.0389
     10 C11         6.2190    6.6620   21.9460 C.2       1 IID         0.2274
     11 N12         5.6200    5.8960   21.0150 N.am      1 IID        -0.2815
     12 C13         6.5290    4.8740   20.5510 C.3       1 IID         0.0510
     13 C14         7.1480    5.2740   19.2120 C.3       1 IID         0.0106
     14 C17         6.6300    7.3370   24.8480 C.3       1 IID         0.0831
     15 C18         7.9910    8.0540   24.9150 C.ar      1 IID        -0.0233
     16 C21         8.4230    9.1450   23.9950 C.ar      1 IID        -0.0689
     17 C22         9.7460    9.7500   24.1690 C.ar      1 IID        -0.0771
     18 C23        10.6360    9.2850   25.2370 C.ar      1 IID        -0.0401
     19 C24        10.2270    8.2260   26.1600 C.ar      1 IID         0.0841
     20 C25         8.9040    7.6040   25.9830 C.ar      1 IID        -0.0297
     21 C26         8.1740    4.2590   18.7010 C.3       1 IID        -0.0295
     22 O1         11.1410    7.9520   27.1750 O.3       1 IID        -0.3230
     23 O45         7.4220    6.5950   22.2000 O.2       1 IID        -0.3840
     24 C7         11.1000    6.7610   27.9850 C.3       1 IID         0.0592
     25 C10         5.8550    3.5200   20.3430 C.3       1 IID         0.0106
     26 C12         6.8320    2.4410   19.8490 C.3       1 IID        -0.0295
     27 N1          7.5590    2.9000   18.6120 N.4       1 IID         0.2371
     28 C16         8.5080    1.8250   18.2030 C.3       1 IID        -0.0266
     29 C19         9.5270    2.2250   17.1470 C.3       1 IID        -0.0218
     30 C20         7.7150    0.6220   17.7310 C.3       1 IID        -0.0218
     31 H1          2.6337   10.6115   26.6267 H         1 IID         0.0550
     32 H2          4.7245    9.1359   26.4941 H         1 IID         0.0550
     33 H3          1.9132    9.9789   22.2955 H         1 IID         0.0556
     34 H4          1.2627   11.0782   24.5110 H         1 IID         0.0522
     35 H5          3.9180    8.0645   21.0353 H         1 IID         0.0399
     36 H6          4.6815    6.0171   20.6915 H         1 IID         0.1845
     37 H7          7.3261    4.7608   21.3005 H         1 IID         0.0559
     38 H8          7.6473    6.2466   19.3331 H         1 IID         0.0339
     39 H9          6.3438    5.3649   18.4671 H         1 IID         0.0339
     40 H10         6.8303    6.3001   24.5402 H         1 IID         0.0762
     41 H11         6.2153    7.3435   25.8668 H         1 IID         0.0762
     42 H12         7.7645    9.4873   23.2049 H         1 IID         0.0465
     43 H13        10.0679   10.5445   23.5055 H         1 IID         0.0572
     44 H14        11.6164    9.7346   25.3450 H         1 IID         0.0486
     45 H15         8.5966    6.8041   26.6469 H         1 IID         0.0479
     46 H16         9.0280    4.2262   19.3935 H         1 IID         0.0815
     47 H17         8.5222    4.5657   17.7037 H         1 IID         0.0815
     48 H18        11.9262    6.7827   28.7109 H         1 IID         0.0577
     49 H19        11.2015    5.8755   27.3404 H         1 IID         0.0577
     50 H20        10.1411    6.7156   28.5221 H         1 IID         0.0577
     51 H21         5.0535    3.6364   19.5986 H         1 IID         0.0339
     52 H22         5.4223    3.1916   21.2995 H         1 IID         0.0339
     53 H23         6.2694    1.5247   19.6169 H         1 IID         0.0815
     54 H24         7.5660    2.2300   20.6407 H         1 IID         0.0815
     55 H25         6.8669    2.9680   17.8823 H         1 IID         0.2036
     56 H26         9.0738    1.5331   19.1000 H         1 IID         0.0846
     57 H27        10.1743    1.3656   16.9181 H         1 IID         0.0284
     58 H28        10.1407    3.0557   17.5256 H         1 IID         0.0284
     59 H29         9.0030    2.5429   16.2336 H         1 IID         0.0284
     60 H30         8.4072   -0.1770   17.4269 H         1 IID         0.0284
     61 H31         7.0878    0.9094   16.8743 H         1 IID         0.0284
     62 H32         7.0748    0.2607   18.5493 H         1 IID         0.0284
@<TRIPOS>BOND
     1    1    2 ar 
     2    1    6 ar 
     3    2    3 ar 
     4    3    4 ar 
     5    3    7 1  
     6    4    5 ar 
     7    4    9 1  
     8    5    6 ar 
     9    7    8 1  
    10    7   14 1  
    11    8    9 2  
    12    8   10 1  
    13   10   11 am 
    14   10   23 2  
    15   11   12 1  
    16   12   13 1  
    17   12   25 1  
    18   13   21 1  
    19   14   15 1  
    20   15   16 ar 
    21   15   20 ar 
    22   16   17 ar 
    23   17   18 ar 
    24   18   19 ar 
    25   19   20 ar 
    26   19   22 1  
    27   21   27 1  
    28   22   24 1  
    29   25   26 1  
    30   26   27 1  
    31   27   28 1  
    32   28   29 1  
    33   28   30 1  
    34    1   31 1  
    35    2   32 1  
    36    5   33 1  
    37    6   34 1  
    38    9   35 1  
    39   11   36 1  
    40   12   37 1  
    41   13   38 1  
    42   13   39 1  
    43   14   40 1  
    44   14   41 1  
    45   16   42 1  
    46   17   43 1  
    47   18   44 1  
    48   20   45 1  
    49   21   46 1  
    50   21   47 1  
    51   24   48 1  
    52   24   49 1  
    53   24   50 1  
    54   25   51 1  
    55   25   52 1  
    56   26   53 1  
    57   26   54 1  
    58   27   55 1  
    59   28   56 1  
    60   29   57 1  
    61   29   58 1  
    62   29   59 1  
    63   30   60 1  
    64   30   61 1  
    65   30   62 1  
@<TRIPOS>SUBSTRUCTURE
     1 IID         1

