### 
### Created by X-TOOL on Mon Sep 10 21:12:54 2018
### 

@<TRIPOS>MOLECULE
2bqw_ligand
   62    65     1     0     0
SMALL
GAST_HUCK


@<TRIPOS>ATOM
      1 C1          3.3080   10.3150   25.1190 C.ar      1 IIE        -0.0739
      2 C2          4.3610    9.2950   25.1870 C.ar      1 IIE        -0.0401
      3 C3          4.8340    8.6550   23.9310 C.ar      1 IIE         0.0725
      4 C4          4.2640    9.0330   22.6300 C.ar      1 IIE        -0.0173
      5 C5          3.2350   10.0650   22.5880 C.ar      1 IIE        -0.0711
      6 C6          2.7490   10.7040   23.8140 C.ar      1 IIE        -0.0763
      7 N7          5.7610    7.6690   23.6630 N.pl3     1 IIE        -0.2337
      8 C8          5.7980    7.4410   22.3590 C.2       1 IIE         0.1366
      9 C9          4.8910    8.2390   21.6710 C.2       1 IIE        -0.0389
     10 C10         6.7300    6.6690   21.7310 C.2       1 IIE         0.2274
     11 N11         6.2790    5.9310   20.7060 N.am      1 IIE        -0.2815
     12 C12         7.2490    4.9750   20.1930 C.3       1 IIE         0.0510
     13 C13         6.6140    3.5920   20.3280 C.3       1 IIE         0.0106
     14 C14         7.4960    2.5350   19.6990 C.3       1 IIE        -0.0295
     15 N15         7.7350    2.8910   18.2770 N.4       1 IIE         0.2371
     16 C16         8.4670    4.1860   18.1620 C.3       1 IIE        -0.0295
     17 C17         7.5780    5.2820   18.7280 C.3       1 IIE         0.0106
     18 C27         8.3450    1.7110   17.6080 C.3       1 IIE        -0.0266
     19 C28         9.7140    1.3050   18.2200 C.3       1 IIE        -0.0218
     20 C32         8.4930    2.0220   16.1240 C.3       1 IIE        -0.0218
     21 C37         6.5940    7.0300   24.6770 C.3       1 IIE         0.1467
     22 C38         7.7290    7.9920   24.9440 C.2       1 IIE         0.2332
     23 C43        10.3430    7.1570   27.4100 C.ar      1 IIE        -0.0405
     24 C40        11.7850    7.1400   27.6250 C.ar      1 IIE        -0.0616
     25 C45         9.7700    7.6550   26.1670 C.ar      1 IIE         0.0668
     26 C47        12.6660    7.6150   26.5700 C.ar      1 IIE         0.0239
     27 C48        12.1000    8.1340   25.3290 C.ar      1 IIE        -0.0616
     28 C49        10.6680    8.1520   25.1310 C.ar      1 IIE        -0.0405
     29 N12         8.4270    7.5680   26.0170 N.am      1 IIE        -0.2314
     30 O14         7.9420    8.9770   24.2280 O.2       1 IIE        -0.3818
     31 CL50       14.3360    7.5000   26.7280 Cl        1 IIE        -0.0849
     32 O56         7.9000    6.6950   22.1320 O.2       1 IIE        -0.3840
     33 H1          2.9429   10.7806   26.0273 H         1 IIE         0.0550
     34 H2          4.7889    9.0115   26.1418 H         1 IIE         0.0550
     35 H3          2.8217   10.3653   21.6319 H         1 IIE         0.0556
     36 H4          1.9775   11.4635   23.7598 H         1 IIE         0.0522
     37 H5          4.7071    8.2430   20.5976 H         1 IIE         0.0399
     38 H6          5.3584    6.0289   20.3280 H         1 IIE         0.1845
     39 H7          8.1732    5.0219   20.7876 H         1 IIE         0.0559
     40 H8          5.6361    3.5928   19.8243 H         1 IIE         0.0339
     41 H9          6.4769    3.3601   21.3945 H         1 IIE         0.0339
     42 H10         6.9970    1.5563   19.7556 H         1 IIE         0.0815
     43 H11         8.4559    2.4888   20.2343 H         1 IIE         0.0815
     44 H12         6.8382    3.0386   17.8410 H         1 IIE         0.2036
     45 H13         8.6906    4.3956   17.1056 H         1 IIE         0.0815
     46 H14         9.4061    4.1356   18.7326 H         1 IIE         0.0815
     47 H15         8.1024    6.2469   18.6654 H         1 IIE         0.0339
     48 H16         6.6455    5.3330   18.1467 H         1 IIE         0.0339
     49 H17         7.6596    0.8584   17.7229 H         1 IIE         0.0846
     50 H18        10.1104    0.4303   17.6836 H         1 IIE         0.0284
     51 H19         9.5806    1.0540   19.2826 H         1 IIE         0.0284
     52 H20        10.4203    2.1432   18.1270 H         1 IIE         0.0284
     53 H21         8.9434    1.1590   15.6117 H         1 IIE         0.0284
     54 H22         9.1398    2.9026   15.9966 H         1 IIE         0.0284
     55 H23         7.5027    2.2289   15.6921 H         1 IIE         0.0284
     56 H24         6.9841    6.0716   24.3039 H         1 IIE         0.0850
     57 H25         6.0143    6.8573   25.5957 H         1 IIE         0.0850
     58 H26         9.6848    6.7920   28.1902 H         1 IIE         0.0503
     59 H27        12.1956    6.7775   28.5604 H         1 IIE         0.0584
     60 H28        12.7566    8.5079   24.5517 H         1 IIE         0.0584
     61 H29        10.2583    8.5382   24.2047 H         1 IIE         0.0503
     62 H30         7.9089    7.1542   26.7655 H         1 IIE         0.2260
@<TRIPOS>BOND
     1    2    1 ar 
     2    1    6 ar 
     3    3    2 ar 
     4    3    4 ar 
     5    7    3 1  
     6    4    5 ar 
     7    9    4 1  
     8    5    6 ar 
     9    7    8 1  
    10   21    7 1  
    11    8    9 2  
    12    8   10 1  
    13   10   11 am 
    14   10   32 2  
    15   11   12 1  
    16   12   13 1  
    17   12   17 1  
    18   13   14 1  
    19   14   15 1  
    20   16   15 1  
    21   15   18 1  
    22   17   16 1  
    23   18   19 1  
    24   18   20 1  
    25   22   21 1  
    26   29   22 am 
    27   22   30 2  
    28   23   24 ar 
    29   25   23 ar 
    30   24   26 ar 
    31   25   28 ar 
    32   25   29 1  
    33   26   27 ar 
    34   26   31 1  
    35   27   28 ar 
    36    1   33 1  
    37    2   34 1  
    38    5   35 1  
    39    6   36 1  
    40    9   37 1  
    41   11   38 1  
    42   12   39 1  
    43   13   40 1  
    44   13   41 1  
    45   14   42 1  
    46   14   43 1  
    47   15   44 1  
    48   16   45 1  
    49   16   46 1  
    50   17   47 1  
    51   17   48 1  
    52   18   49 1  
    53   19   50 1  
    54   19   51 1  
    55   19   52 1  
    56   20   53 1  
    57   20   54 1  
    58   20   55 1  
    59   21   56 1  
    60   21   57 1  
    61   23   58 1  
    62   24   59 1  
    63   27   60 1  
    64   28   61 1  
    65   29   62 1  
@<TRIPOS>SUBSTRUCTURE
     1 IIE         1

