### 
### Created by X-TOOL on Mon Sep 10 21:12:52 2018
### 

@<TRIPOS>MOLECULE
2br1_ligand
   50    53     1     0     0
SMALL
GAST_HUCK


@<TRIPOS>ATOM
      1 CAB        18.9620   -8.0070   12.9180 C.3       1 PFP         0.0590
      2 OAS        17.6310   -7.6670   12.5680 O.3       1 PFP        -0.3229
      3 CAV        17.6080   -6.4090   11.9280 C.ar      1 PFP         0.0879
      4 CAG        18.3940   -5.3380   12.4250 C.ar      1 PFP        -0.0362
      5 CAK        18.3210   -4.0440   11.7950 C.ar      1 PFP        -0.0689
      6 CAF        16.7450   -6.1960   10.8440 C.ar      1 PFP        -0.0362
      7 CAJ        16.6770   -4.9250   10.2200 C.ar      1 PFP        -0.0689
      8 CAX        17.4810   -3.8550   10.6780 C.ar      1 PFP        -0.0428
      9 CBA        17.3310   -2.4950   10.0540 C.2       1 PFP         0.0114
     10 CBC        16.1970   -1.8060    9.9290 C.ar      1 PFP         0.0710
     11 CAY        14.9220   -1.9560   10.4670 C.ar      1 PFP         0.1242
     12 NAQ        14.6190   -3.0080   11.2120 N.pl3     1 PFP        -0.2990
     13 CAN        13.2030   -3.2550   11.6010 C.3       1 PFP         0.0531
     14 CAM        12.5240   -2.3810   12.7310 C.3       1 PFP         0.0647
     15 OAC        12.1040   -0.9840   12.4450 O.3       1 PFP        -0.3930
     16 NAO        13.9850   -1.0330   10.2090 N.ar      1 PFP        -0.2699
     17 CAL        14.2790    0.0380    9.4700 C.ar      1 PFP         0.0543
     18 NAP        15.5230    0.2070    8.9640 N.ar      1 PFP        -0.2635
     19 CBB        16.4790   -0.7010    9.1890 C.ar      1 PFP         0.1984
     20 OAT        17.7140   -0.7390    8.8380 O.3       1 PFP        -0.2330
     21 CAZ        18.2670   -1.8180    9.2740 C.2       1 PFP         0.1333
     22 CAW        19.5820   -2.1570    9.0700 C.ar      1 PFP         0.0077
     23 CAH        20.4510   -1.2110    8.5100 C.ar      1 PFP        -0.0586
     24 CAD        21.7700   -1.5370    8.2650 C.ar      1 PFP        -0.0311
     25 CAU        22.2320   -2.8040    8.5440 C.ar      1 PFP         0.0929
     26 OAR        23.5290   -3.1180    8.3000 O.3       1 PFP        -0.3198
     27 CAA        24.5290   -2.0490    8.1770 C.3       1 PFP         0.0601
     28 CAE        21.3610   -3.7670    9.0800 C.ar      1 PFP        -0.0311
     29 CAI        20.0290   -3.4400    9.3210 C.ar      1 PFP        -0.0586
     30 H1         18.9710   -8.9879   13.4158 H         1 PFP         0.0577
     31 H2         19.3675   -7.2457   13.6006 H         1 PFP         0.0577
     32 H3         19.5802   -8.0514   12.0092 H         1 PFP         0.0577
     33 H4         19.0475   -5.4924   13.2760 H         1 PFP         0.0537
     34 H5         18.9098   -3.2186   12.1784 H         1 PFP         0.0556
     35 H6         16.1259   -7.0082   10.4807 H         1 PFP         0.0537
     36 H7         16.0032   -4.7717    9.3848 H         1 PFP         0.0556
     37 H8         15.3601   -3.6531   11.5213 H         1 PFP         0.1862
     38 H9         13.1438   -4.3022   11.9324 H         1 PFP         0.0549
     39 H10        12.5975   -3.1232   10.6922 H         1 PFP         0.0549
     40 H11        13.2387   -2.3320   13.5657 H         1 PFP         0.0578
     41 H12        11.6223   -2.9232   13.0517 H         1 PFP         0.0578
     42 H13        11.7171   -0.6048   13.2254 H         1 PFP         0.2095
     43 H14        13.5140    0.7803    9.2728 H         1 PFP         0.0991
     44 H15        20.0861   -0.2193    8.2682 H         1 PFP         0.0599
     45 H16        22.4432   -0.7943    7.8523 H         1 PFP         0.0550
     46 H17        25.5167   -2.4917    7.9811 H         1 PFP         0.0579
     47 H18        24.5652   -1.4713    9.1124 H         1 PFP         0.0579
     48 H19        24.2540   -1.3835    7.3454 H         1 PFP         0.0579
     49 H20        21.7251   -4.7628    9.3056 H         1 PFP         0.0550
     50 H21        19.3455   -4.1891    9.7040 H         1 PFP         0.0599
@<TRIPOS>BOND
     1    1    2 1  
     2    2    3 1  
     3    3    4 ar 
     4    3    6 ar 
     5    4    5 ar 
     6    5    8 ar 
     7    6    7 ar 
     8    7    8 ar 
     9    8    9 1  
    10    9   10 1  
    11    9   21 2  
    12   10   11 ar 
    13   10   19 ar 
    14   11   12 1  
    15   11   16 ar 
    16   12   13 1  
    17   13   14 1  
    18   14   15 1  
    19   16   17 ar 
    20   17   18 ar 
    21   18   19 ar 
    22   19   20 1  
    23   20   21 1  
    24   21   22 1  
    25   22   23 ar 
    26   22   29 ar 
    27   23   24 ar 
    28   24   25 ar 
    29   25   26 1  
    30   25   28 ar 
    31   26   27 1  
    32   28   29 ar 
    33    1   30 1  
    34    1   31 1  
    35    1   32 1  
    36    4   33 1  
    37    5   34 1  
    38    6   35 1  
    39    7   36 1  
    40   12   37 1  
    41   13   38 1  
    42   13   39 1  
    43   14   40 1  
    44   14   41 1  
    45   15   42 1  
    46   17   43 1  
    47   23   44 1  
    48   24   45 1  
    49   27   46 1  
    50   27   47 1  
    51   27   48 1  
    52   28   49 1  
    53   29   50 1  
@<TRIPOS>SUBSTRUCTURE
     1 PFP         1

