### 
### Created by X-TOOL on Mon Sep 10 21:12:52 2018
### 

@<TRIPOS>MOLECULE
2br6_ligand
   15    15     1     0     0
SMALL
GAST_HUCK


@<TRIPOS>ATOM
      1 N           9.0250   20.9090   13.5860 N.4       1 HSL         0.2391
      2 CA          8.6970   22.1290   13.4550 C.3       1 HSL         0.0788
      3 C           9.2120   23.0850   12.5000 C.2       1 HSL         0.2828
      4 O           9.4140   22.9260   11.2950 O.2       1 HSL        -0.3641
      5 CB          8.0430   22.8740   14.6590 C.3       1 HSL         0.0370
      6 CG          8.7190   24.2340   14.5760 C.3       1 HSL         0.0844
      7 OD          9.4110   24.3440   13.2390 O.3       1 HSL        -0.2722
      8 H1          8.4946   20.4974   14.3379 H         1 HSL         0.2016
      9 H2         10.0090   20.8462   13.7953 H         1 HSL         0.2016
     10 H3          8.8316   20.4151   12.7288 H         1 HSL         0.2016
     11 H4          7.7724   21.9049   12.9029 H         1 HSL         0.1115
     12 H5          8.2662   22.3717   15.6118 H         1 HSL         0.0373
     13 H6          6.9532   22.9586   14.5355 H         1 HSL         0.0373
     14 H7          9.4577   24.3312   15.3852 H         1 HSL         0.0617
     15 H8          7.9651   25.0295   14.6701 H         1 HSL         0.0617
@<TRIPOS>BOND
     1    1    2 1  
     2    2    3 1  
     3    2    5 1  
     4    3    4 2  
     5    3    7 1  
     6    5    6 1  
     7    6    7 1  
     8    1    8 1  
     9    1    9 1  
    10    1   10 1  
    11    2   11 1  
    12    5   12 1  
    13    5   13 1  
    14    6   14 1  
    15    6   15 1  
@<TRIPOS>SUBSTRUCTURE
     1 HSL         1

