### 
### Created by X-TOOL on Mon Sep 10 21:12:53 2018
### 

@<TRIPOS>MOLECULE
2brb_ligand
   42    45     1     0     0
SMALL
GAST_HUCK


@<TRIPOS>ATOM
      1 C2         14.3110    0.2600    9.6510 C.ar      1 PFQ         0.0554
      2 C10        18.3220   -1.7000    9.2930 C.2       1 PFQ         0.1438
      3 C11        19.6470   -1.9520    8.9490 C.ar      1 PFQ         0.0192
      4 C12        20.3240   -3.1340    9.2430 C.ar      1 PFQ        -0.0510
      5 C13        21.6530   -3.2690    8.8360 C.ar      1 PFQ        -0.0615
      6 C14        22.2900   -2.2420    8.1380 C.ar      1 PFQ        -0.0622
      7 C15        21.6140   -1.0560    7.8470 C.ar      1 PFQ        -0.0615
      8 C16        20.2910   -0.9400    8.2410 C.ar      1 PFQ        -0.0510
      9 C19        16.9690   -4.8120   10.0740 C.ar      1 PFQ        -0.0609
     10 C20        17.0350   -6.0670   10.6850 C.ar      1 PFQ        -0.0660
     11 C21        17.6450   -6.1780   11.9360 C.ar      1 PFQ        -0.0660
     12 C22        18.1740   -5.0270   12.5490 C.ar      1 PFQ        -0.0660
     13 N1         15.5150    0.4240    9.1270 N.ar      1 PFQ        -0.2620
     14 C6         16.4650   -0.5070    9.2980 C.ar      1 PFQ         0.2013
     15 O6         17.7520   -0.5450    8.8630 O.3       1 PFQ        -0.2284
     16 C5         16.2030   -1.6630   10.0320 C.ar      1 PFQ         0.0757
     17 N9         14.5520   -2.8610   11.2950 N.pl3     1 PFQ        -0.2984
     18 C4         14.9180   -1.7990   10.5690 C.ar      1 PFQ         0.1260
     19 N3         14.0200   -0.8210   10.3510 N.ar      1 PFQ        -0.2686
     20 C17        18.1030   -3.7740   11.9320 C.ar      1 PFQ        -0.0609
     21 C1         17.3790   -2.4230   10.0340 C.2       1 PFQ         0.0223
     22 C18        17.5000   -3.6660   10.6770 C.ar      1 PFQ        -0.0309
     23 C23        12.6900   -2.5010   12.8800 C.3       1 PFQ         0.0648
     24 C8         13.1250   -3.1390   11.5520 C.3       1 PFQ         0.0533
     25 O24        12.1850   -1.1800   12.6450 O.3       1 PFQ        -0.3930
     26 H1         13.5545    1.0223    9.5038 H         1 PFQ         0.1000
     27 H2         19.8274   -3.9351    9.7785 H         1 PFQ         0.0623
     28 H3         22.1948   -4.1797    9.0643 H         1 PFQ         0.0616
     29 H4         23.3185   -2.3664    7.8191 H         1 PFQ         0.0614
     30 H5         22.1117   -0.2462    7.3259 H         1 PFQ         0.0616
     31 H6         19.7429   -0.0386    7.9919 H         1 PFQ         0.0623
     32 H7         16.4925   -4.7234    9.1044 H         1 PFQ         0.0583
     33 H8         16.6193   -6.9403   10.1956 H         1 PFQ         0.0606
     34 H9         17.7104   -7.1407   12.4299 H         1 PFQ         0.0581
     35 H10        18.6468   -5.1135   13.5206 H         1 PFQ         0.0606
     36 H11        15.2719   -3.4903   11.6781 H         1 PFQ         0.1865
     37 H12        18.5110   -2.8973   12.4219 H         1 PFQ         0.0583
     38 H13        13.5542   -2.4456   13.5583 H         1 PFQ         0.0578
     39 H14        11.9022   -3.1161   13.3393 H         1 PFQ         0.0578
     40 H15        12.9705   -4.2268   11.6040 H         1 PFQ         0.0549
     41 H16        12.5205   -2.7215   10.7333 H         1 PFQ         0.0549
     42 H17        12.8653   -0.6479   12.2493 H         1 PFQ         0.2095
@<TRIPOS>BOND
     1   13    1 ar 
     2   19    1 ar 
     3    2    3 1  
     4    2   15 1  
     5   21    2 2  
     6    3    4 ar 
     7    3    8 ar 
     8    4    5 ar 
     9    5    6 ar 
    10    7    6 ar 
    11    8    7 ar 
    12    9   10 ar 
    13   22    9 ar 
    14   10   11 ar 
    15   12   11 ar 
    16   20   12 ar 
    17   14   13 ar 
    18   14   15 1  
    19   16   14 ar 
    20   16   18 ar 
    21   21   16 1  
    22   18   17 1  
    23   17   24 1  
    24   18   19 ar 
    25   22   20 ar 
    26   21   22 1  
    27   24   23 1  
    28   23   25 1  
    29    1   26 1  
    30    4   27 1  
    31    5   28 1  
    32    6   29 1  
    33    7   30 1  
    34    8   31 1  
    35    9   32 1  
    36   10   33 1  
    37   11   34 1  
    38   12   35 1  
    39   17   36 1  
    40   20   37 1  
    41   23   38 1  
    42   23   39 1  
    43   24   40 1  
    44   24   41 1  
    45   25   42 1  
@<TRIPOS>SUBSTRUCTURE
     1 PFQ         1

