### 
### Created by X-TOOL on Mon Sep 10 21:12:52 2018
### 

@<TRIPOS>MOLECULE
2brc_ligand
   46    49     1     0     0
SMALL
GAST_HUCK


@<TRIPOS>ATOM
      1 C15        15.8320   -3.9980   -6.2080 C.ar      1 CT5        -0.0429
      2 C12        14.5870   -4.4520   -5.7630 C.ar      1 CT5         0.1149
      3 O17        14.3010   -5.7910   -5.6770 O.3       1 CT5        -0.3203
      4 O18        12.3190   -3.9240   -4.9620 O.3       1 CT5        -0.3217
      5 C16        13.5520   -3.4690   -5.4030 C.ar      1 CT5         0.1155
      6 C22        13.8600   -2.1150   -5.5050 C.ar      1 CT5        -0.0458
      7 C20        15.1210   -1.6830   -5.9400 C.ar      1 CT5        -0.0824
      8 C8         16.1060   -2.6260   -6.2720 C.ar      1 CT5        -0.0573
      9 C4         17.4630   -2.2010   -6.7400 C.2       1 CT5        -0.0036
     10 C1         17.7930   -1.3650   -7.8890 C.2       1 CT5         0.0121
     11 C7         16.8980   -0.6970   -8.8830 C.3       1 CT5        -0.0270
     12 N5         19.1350   -1.3250   -7.8920 N.2       1 CT5        -0.2319
     13 C2         18.7650   -2.5760   -6.1260 C.2       1 CT5         0.0821
     14 N3         19.7220   -2.0590   -6.8290 N.pl3     1 CT5        -0.2277
     15 C6         18.7770   -3.4260   -4.9260 C.ar      1 CT5         0.0256
     16 C10        17.8940   -3.1560   -3.9040 C.ar      1 CT5        -0.0637
     17 C14        17.9130   -3.9760   -2.8050 C.ar      1 CT5        -0.0217
     18 C26        16.9710   -3.7600   -1.6480 C.3       1 CT5        -0.0281
     19 C27        15.6760   -3.0930   -2.0710 C.3       1 CT5        -0.0582
     20 C13        18.8580   -5.0860   -2.7260 C.ar      1 CT5         0.0849
     21 C17        12.9140   -6.1600   -5.7600 C.3       1 CT5         0.0950
     22 O25        18.7630   -5.8500   -1.6080 O.3       1 CT5        -0.3370
     23 C11        19.7380   -5.3620   -3.7660 C.ar      1 CT5        -0.0069
     24 C18        12.1530   -5.3280   -4.7220 C.3       1 CT5         0.0944
     25 C9         19.7430   -4.5250   -4.8680 C.ar      1 CT5         0.0887
     26 O24        20.5910   -4.6930   -5.8990 O.3       1 CT5        -0.3354
     27 H1         16.5906   -4.7128   -6.5056 H         1 CT5         0.0455
     28 H2         13.1087   -1.3790   -5.2425 H         1 CT5         0.0501
     29 H3         15.3346   -0.6232   -6.0197 H         1 CT5         0.0451
     30 H4         17.5083   -0.1464   -9.6140 H         1 CT5         0.0380
     31 H5         16.2295    0.0038   -8.3616 H         1 CT5         0.0380
     32 H6         16.2978   -1.4569   -9.4048 H         1 CT5         0.0380
     33 H7         20.7308   -2.1624   -6.6484 H         1 CT5         0.2472
     34 H8         17.2054   -2.3212   -3.9665 H         1 CT5         0.0508
     35 H9         17.4686   -3.1231   -0.9019 H         1 CT5         0.0382
     36 H10        16.7349   -4.7357   -1.1983 H         1 CT5         0.0382
     37 H11        15.0281   -2.9597   -1.1921 H         1 CT5         0.0247
     38 H12        15.1635   -3.7241   -2.8120 H         1 CT5         0.0247
     39 H13        15.8972   -2.1115   -2.5156 H         1 CT5         0.0247
     40 H14        12.7967   -7.2317   -5.5414 H         1 CT5         0.0636
     41 H15        12.5284   -5.9470   -6.7679 H         1 CT5         0.0636
     42 H16        19.4120   -6.5428   -1.6432 H         1 CT5         0.2471
     43 H17        20.4058   -6.2143   -3.7149 H         1 CT5         0.0454
     44 H18        11.0831   -5.5775   -4.7763 H         1 CT5         0.0635
     45 H19        12.5352   -5.5685   -3.7190 H         1 CT5         0.0635
     46 H20        21.4855   -4.6301   -5.5853 H         1 CT5         0.2485
@<TRIPOS>BOND
     1    1    2 ar 
     2    1    8 ar 
     3    2    3 1  
     4    2    5 ar 
     5    3   21 1  
     6    5    4 1  
     7    4   24 1  
     8    5    6 ar 
     9    6    7 ar 
    10    7    8 ar 
    11    8    9 1  
    12    9   10 1  
    13    9   13 2  
    14   10   11 1  
    15   10   12 2  
    16   12   14 1  
    17   13   14 1  
    18   13   15 1  
    19   15   16 ar 
    20   15   25 ar 
    21   16   17 ar 
    22   17   18 1  
    23   17   20 ar 
    24   18   19 1  
    25   20   22 1  
    26   20   23 ar 
    27   21   24 1  
    28   23   25 ar 
    29   25   26 1  
    30    1   27 1  
    31    6   28 1  
    32    7   29 1  
    33   11   30 1  
    34   11   31 1  
    35   11   32 1  
    36   14   33 1  
    37   16   34 1  
    38   18   35 1  
    39   18   36 1  
    40   19   37 1  
    41   19   38 1  
    42   19   39 1  
    43   21   40 1  
    44   21   41 1  
    45   22   42 1  
    46   23   43 1  
    47   24   44 1  
    48   24   45 1  
    49   26   46 1  
@<TRIPOS>SUBSTRUCTURE
     1 CT5         1

