### 
### Created by X-TOOL on Mon Sep 10 21:12:53 2018
### 

@<TRIPOS>MOLECULE
2brg_ligand
   45    48     1     0     0
SMALL
GAST_HUCK


@<TRIPOS>ATOM
      1 C2          5.8270   -2.0940   19.7640 C.ar      1 DFY         0.0554
      2 C10         1.7960   -4.0850   19.9240 C.2       1 DFY         0.1438
      3 C11         0.4530   -4.4350   20.2240 C.ar      1 DFY         0.0192
      4 C12         0.0010   -5.7760   20.2250 C.ar      1 DFY        -0.0510
      5 C13        -1.3200   -6.1150   20.5430 C.ar      1 DFY        -0.0615
      6 C14        -2.2050   -5.1090   20.9090 C.ar      1 DFY        -0.0622
      7 C15        -1.7550   -3.7890   20.9370 C.ar      1 DFY        -0.0615
      8 C16        -0.4470   -3.4320   20.6040 C.ar      1 DFY        -0.0510
      9 C19         1.4100   -6.0770   17.5750 C.ar      1 DFY        -0.0609
     10 C20         1.0450   -7.3070   17.0230 C.ar      1 DFY        -0.0660
     11 C21         1.6660   -8.4810   17.4410 C.ar      1 DFY        -0.0660
     12 C22         2.6700   -8.4080   18.4230 C.ar      1 DFY        -0.0660
     13 N1          4.5930   -1.9880   20.2900 N.ar      1 DFY        -0.2620
     14 C6          3.6720   -2.9120   20.0340 C.ar      1 DFY         0.2014
     15 O6          2.3710   -2.9630   20.4590 O.3       1 DFY        -0.2284
     16 C5          3.9750   -4.0330   19.2160 C.ar      1 DFY         0.0759
     17 N9          5.8140   -5.0910   17.9060 N.pl3     1 DFY        -0.2876
     18 C4          5.3040   -4.1040   18.6950 C.ar      1 DFY         0.1283
     19 N3          6.1900   -3.1150   18.9920 N.ar      1 DFY        -0.2684
     20 C17         3.0350   -7.1790   18.9840 C.ar      1 DFY        -0.0609
     21 C1          2.7520   -4.7640   19.1520 C.2       1 DFY         0.0223
     22 C18         2.4230   -5.9920   18.5480 C.ar      1 DFY        -0.0309
     23 C23         7.8110   -4.2130   16.6610 C.3       1 DFY         0.0650
     24 C8          7.3060   -5.1480   17.8050 C.3       1 DFY         0.0560
     25 O24         8.2310   -2.9300   17.1550 O.3       1 DFY        -0.3930
     26 CAA         4.9330   -6.0480   17.2170 C.3       1 DFY         0.0220
     27 H1          6.5531   -1.3179   19.9774 H         1 DFY         0.1000
     28 H2          0.6992   -6.5656   19.9717 H         1 DFY         0.0623
     29 H3         -1.6472   -7.1477   20.5041 H         1 DFY         0.0616
     30 H4         -3.2303   -5.3462   21.1690 H         1 DFY         0.0614
     31 H5         -2.4488   -3.0090   21.2291 H         1 DFY         0.0616
     32 H6         -0.1333   -2.3950   20.6391 H         1 DFY         0.0623
     33 H7          0.9055   -5.1746   17.2491 H         1 DFY         0.0583
     34 H8          0.2726   -7.3479   16.2636 H         1 DFY         0.0606
     35 H9          1.3800   -9.4364   17.0161 H         1 DFY         0.0581
     36 H10         3.1670   -9.3144   18.7492 H         1 DFY         0.0606
     37 H11         3.7930   -7.1428   19.7581 H         1 DFY         0.0583
     38 H12         6.9951   -4.0647   15.9383 H         1 DFY         0.0578
     39 H13         8.6625   -4.6954   16.1588 H         1 DFY         0.0578
     40 H14         7.6155   -6.1817   17.5912 H         1 DFY         0.0551
     41 H15         7.7464   -4.8233   18.7592 H         1 DFY         0.0551
     42 H16         7.4997   -2.5027   17.5853 H         1 DFY         0.2095
     43 H17         3.8833   -5.8064   17.4403 H         1 DFY         0.0493
     44 H18         5.1564   -7.0676   17.5641 H         1 DFY         0.0493
     45 H19         5.1008   -5.9851   16.1317 H         1 DFY         0.0493
@<TRIPOS>BOND
     1   13    1 ar 
     2   19    1 ar 
     3    2    3 1  
     4    2   15 1  
     5   21    2 2  
     6    3    4 ar 
     7    3    8 ar 
     8    4    5 ar 
     9    5    6 ar 
    10    7    6 ar 
    11    8    7 ar 
    12    9   10 ar 
    13   22    9 ar 
    14   10   11 ar 
    15   12   11 ar 
    16   20   12 ar 
    17   14   13 ar 
    18   14   15 1  
    19   16   14 ar 
    20   16   18 ar 
    21   21   16 1  
    22   18   17 1  
    23   17   24 1  
    24   17   26 1  
    25   18   19 ar 
    26   22   20 ar 
    27   21   22 1  
    28   24   23 1  
    29   23   25 1  
    30    1   27 1  
    31    4   28 1  
    32    5   29 1  
    33    6   30 1  
    34    7   31 1  
    35    8   32 1  
    36    9   33 1  
    37   10   34 1  
    38   11   35 1  
    39   12   36 1  
    40   20   37 1  
    41   23   38 1  
    42   23   39 1  
    43   24   40 1  
    44   24   41 1  
    45   25   42 1  
    46   26   43 1  
    47   26   44 1  
    48   26   45 1  
@<TRIPOS>SUBSTRUCTURE
     1 DFY         1

