### 
### Created by X-TOOL on Mon Sep 10 21:12:52 2018
### 

@<TRIPOS>MOLECULE
2brh_ligand
   40    43     1     0     0
SMALL
GAST_HUCK


@<TRIPOS>ATOM
      1 C2         14.7740   -0.4920    9.4980 C.ar      1 DFW         0.0554
      2 C10        18.9250   -2.3310    9.2240 C.2       1 DFW         0.1438
      3 C11        20.3690   -2.6180    8.8710 C.ar      1 DFW         0.0192
      4 C12        21.1530   -1.5580    8.3760 C.ar      1 DFW        -0.0510
      5 C13        22.4750   -1.7610    8.0070 C.ar      1 DFW        -0.0615
      6 C14        23.0470   -3.0510    8.1200 C.ar      1 DFW        -0.0622
      7 C15        22.2760   -4.1310    8.5860 C.ar      1 DFW        -0.0615
      8 C16        20.9370   -3.9140    8.9420 C.ar      1 DFW        -0.0510
      9 C19        19.1910   -4.5630   11.5970 C.ar      1 DFW        -0.0609
     10 C20        19.3540   -5.7980   12.2630 C.ar      1 DFW        -0.0660
     11 C21        18.4310   -6.8340   12.0720 C.ar      1 DFW        -0.0660
     12 C22        17.3620   -6.6460   11.1730 C.ar      1 DFW        -0.0660
     13 N1         15.9700   -0.3250    8.9230 N.ar      1 DFW        -0.2620
     14 C6         16.9750   -1.2000    9.1640 C.ar      1 DFW         0.2013
     15 O6         18.3070   -1.1970    8.7450 O.3       1 DFW        -0.2284
     16 C5         16.7610   -2.3200    9.9480 C.ar      1 DFW         0.0758
     17 N9         15.1070   -3.5830   11.2520 N.pl3     1 DFW        -0.2881
     18 C4         15.4630   -2.5000   10.4850 C.ar      1 DFW         0.1274
     19 N3         14.4970   -1.5810   10.2300 N.ar      1 DFW        -0.2685
     20 C17        17.2120   -5.4100   10.5090 C.ar      1 DFW        -0.0609
     21 C1         17.9570   -3.0430    9.9770 C.2       1 DFW         0.0223
     22 C18        18.1290   -4.3590   10.7130 C.ar      1 DFW        -0.0309
     23 C23        13.8760   -4.8900   12.8870 C.2       1 DFW         0.0576
     24 C8         13.7760   -3.7470   11.8920 C.3       1 DFW         0.0828
     25 O24        12.8460   -5.3340   13.4390 O.co2     1 DFW        -0.5668
     26 O3         14.9480   -5.6680   12.7710 O.co2     1 DFW        -0.5668
     27 H1         14.0126    0.2689    9.3696 H         1 DFW         0.1000
     28 H2         20.7176   -0.5698    8.2820 H         1 DFW         0.0623
     29 H3         23.0681   -0.9342    7.6333 H         1 DFW         0.0616
     30 H4         24.0841   -3.2071    7.8461 H         1 DFW         0.0614
     31 H5         22.7118   -5.1200    8.6691 H         1 DFW         0.0616
     32 H6         20.3295   -4.7476    9.2754 H         1 DFW         0.0623
     33 H7         19.9000   -3.7624   11.7744 H         1 DFW         0.0583
     34 H8         20.1988   -5.9449   12.9261 H         1 DFW         0.0606
     35 H9         18.5376   -7.7694   12.6093 H         1 DFW         0.0581
     36 H10        16.6567   -7.4490   10.9921 H         1 DFW         0.0606
     37 H11        15.8056   -4.3268   11.3919 H         1 DFW         0.1885
     38 H12        16.3783   -5.2664    9.8312 H         1 DFW         0.0583
     39 H13        13.0199   -3.9812   11.1281 H         1 DFW         0.0697
     40 H14        13.4952   -2.8203   12.4139 H         1 DFW         0.0697
@<TRIPOS>BOND
     1   13    1 ar 
     2   19    1 ar 
     3    2    3 1  
     4    2   15 1  
     5   21    2 2  
     6    3    4 ar 
     7    3    8 ar 
     8    4    5 ar 
     9    5    6 ar 
    10    7    6 ar 
    11    8    7 ar 
    12    9   10 ar 
    13   22    9 ar 
    14   10   11 ar 
    15   12   11 ar 
    16   20   12 ar 
    17   14   13 ar 
    18   14   15 1  
    19   16   14 ar 
    20   16   18 ar 
    21   21   16 1  
    22   18   17 1  
    23   17   24 1  
    24   18   19 ar 
    25   22   20 ar 
    26   21   22 1  
    27   24   23 1  
    28   23   25 ar 
    29   23   26 ar 
    30    1   27 1  
    31    4   28 1  
    32    5   29 1  
    33    6   30 1  
    34    7   31 1  
    35    8   32 1  
    36    9   33 1  
    37   10   34 1  
    38   11   35 1  
    39   12   36 1  
    40   17   37 1  
    41   20   38 1  
    42   24   39 1  
    43   24   40 1  
@<TRIPOS>SUBSTRUCTURE
     1 DFW         1

