### 
### Created by X-TOOL on Mon Sep 10 21:12:53 2018
### 

@<TRIPOS>MOLECULE
2brm_ligand
   43    46     1     0     0
SMALL
GAST_HUCK


@<TRIPOS>ATOM
      1 C2          6.0690   -2.2850   19.4910 C.ar      1 DFZ         0.0517
      2 C10         2.0930   -4.2810   19.7290 C.2       1 DFZ         0.0827
      3 C11         0.7620   -4.6430   19.9740 C.ar      1 DFZ         0.0083
      4 C12         0.2530   -5.9090   19.7010 C.ar      1 DFZ        -0.0521
      5 C13        -1.0810   -6.2130   19.9650 C.ar      1 DFZ        -0.0617
      6 C14        -1.9300   -5.2530   20.5090 C.ar      1 DFZ        -0.0624
      7 C15        -1.4340   -3.9840   20.7860 C.ar      1 DFZ        -0.0617
      8 C16        -0.0980   -3.6880   20.5170 C.ar      1 DFZ        -0.0521
      9 C19         2.1820   -6.3430   17.1790 C.ar      1 DFZ        -0.0620
     10 C20         2.0550   -7.5920   16.5670 C.ar      1 DFZ        -0.0668
     11 C21         2.6560   -8.7200   17.1260 C.ar      1 DFZ        -0.0667
     12 C22         3.3880   -8.5960   18.3040 C.ar      1 DFZ        -0.0668
     13 N1          4.8520   -2.1560   19.9810 N.ar      1 DFZ        -0.2743
     14 C6          3.9260   -3.0990   19.7700 C.ar      1 DFZ         0.1401
     15 C5          4.2350   -4.2300   19.0210 C.ar      1 DFZ         0.0599
     16 N9          5.9720   -5.3620   17.7820 N.pl3     1 DFZ        -0.2990
     17 C4          5.5390   -4.3340   18.5170 C.ar      1 DFZ         0.1221
     18 N3          6.4120   -3.3440   18.7820 N.ar      1 DFZ        -0.2715
     19 N90         2.6610   -3.1610   20.1650 N.pl3     1 DFZ        -0.2559
     20 C17         3.5100   -7.3500   18.9160 C.ar      1 DFZ        -0.0620
     21 C1          3.0590   -4.9830   18.9950 C.2       1 DFZ         0.0068
     22 C18         2.9100   -6.2190   18.3600 C.ar      1 DFZ        -0.0346
     23 C23         7.5920   -4.3990   16.1920 C.3       1 DFZ         0.0648
     24 C8          7.3640   -5.4350   17.3020 C.3       1 DFZ         0.0533
     25 O24         8.4060   -3.3250   16.6890 O.3       1 DFZ        -0.3930
     26 H1          6.8014   -1.5070   19.6738 H         1 DFZ         0.0987
     27 H2          0.9018   -6.6675   19.2781 H         1 DFZ         0.0621
     28 H3         -1.4605   -7.2043   19.7452 H         1 DFZ         0.0616
     29 H4         -2.9671   -5.4925   20.7145 H         1 DFZ         0.0612
     30 H5         -2.0838   -3.2269   21.2098 H         1 DFZ         0.0616
     31 H6          0.2800   -2.6955   20.7343 H         1 DFZ         0.0621
     32 H7          1.7146   -5.4713   16.7355 H         1 DFZ         0.0576
     33 H8          1.4846   -7.6857   15.6499 H         1 DFZ         0.0604
     34 H9          2.5538   -9.6868   16.6464 H         1 DFZ         0.0576
     35 H10         3.8616   -9.4663   18.7438 H         1 DFZ         0.0604
     36 H11         5.3179   -6.1215   17.5451 H         1 DFZ         0.1865
     37 H12         2.1859   -2.4426   20.7299 H         1 DFZ         0.2309
     38 H13         4.0777   -7.2580   19.8349 H         1 DFZ         0.0576
     39 H14         6.6223   -3.9991   15.8608 H         1 DFZ         0.0578
     40 H15         8.0999   -4.8794   15.3428 H         1 DFZ         0.0578
     41 H16         7.5604   -6.4423   16.9060 H         1 DFZ         0.0549
     42 H17         8.0488   -5.2297   18.1380 H         1 DFZ         0.0549
     43 H18         7.9671   -2.9095   17.4220 H         1 DFZ         0.2095
@<TRIPOS>BOND
     1   13    1 ar 
     2   18    1 ar 
     3    2    3 1  
     4    2   19 1  
     5   21    2 2  
     6    3    4 ar 
     7    3    8 ar 
     8    4    5 ar 
     9    5    6 ar 
    10    7    6 ar 
    11    8    7 ar 
    12    9   10 ar 
    13   22    9 ar 
    14   10   11 ar 
    15   12   11 ar 
    16   20   12 ar 
    17   14   13 ar 
    18   15   14 ar 
    19   14   19 1  
    20   15   17 ar 
    21   21   15 1  
    22   17   16 1  
    23   16   24 1  
    24   17   18 ar 
    25   22   20 ar 
    26   21   22 1  
    27   24   23 1  
    28   23   25 1  
    29    1   26 1  
    30    4   27 1  
    31    5   28 1  
    32    6   29 1  
    33    7   30 1  
    34    8   31 1  
    35    9   32 1  
    36   10   33 1  
    37   11   34 1  
    38   12   35 1  
    39   16   36 1  
    40   19   37 1  
    41   20   38 1  
    42   23   39 1  
    43   23   40 1  
    44   24   41 1  
    45   24   42 1  
    46   25   43 1  
@<TRIPOS>SUBSTRUCTURE
     1 DFZ         1

