### 
### Created by X-TOOL on Mon Sep 10 21:12:53 2018
### 

@<TRIPOS>MOLECULE
2brn_ligand
   46    49     1     0     0
SMALL
GAST_HUCK


@<TRIPOS>ATOM
      1 C17         3.8910   -6.9350   18.9340 C.ar      1 DF1        -0.0620
      2 C18         3.6840   -8.1800   18.3240 C.ar      1 DF1        -0.0668
      3 C19         2.7030   -8.3230   17.3390 C.ar      1 DF1        -0.0667
      4 C20         1.9290   -7.2240   16.9650 C.ar      1 DF1        -0.0668
      5 C21         2.1430   -5.9780   17.5700 C.ar      1 DF1        -0.0620
      6 C15         3.1260   -5.8340   18.5540 C.ar      1 DF1        -0.0346
      7 C7          3.3290   -4.5810   19.1610 C.2       1 DF1         0.0068
      8 C6          4.5210   -3.8420   19.1320 C.ar      1 DF1         0.0599
      9 C4          5.8260   -4.1040   18.7420 C.ar      1 DF1         0.1221
     10 N10         6.1610   -5.3000   18.1630 N.pl3     1 DF1        -0.2987
     11 C11         6.6830   -5.3550   16.7670 C.3       1 DF1         0.0558
     12 C12         8.1110   -4.7500   16.8160 C.3       1 DF1         0.0729
     13 C14         9.0490   -5.4490   15.8290 C.3       1 DF1        -0.0370
     14 O13         8.0840   -3.3060   16.6280 O.3       1 DF1        -0.3900
     15 N3          6.7710   -3.1620   18.9380 N.ar      1 DF1        -0.2715
     16 C2          6.4590   -1.9940   19.5310 C.ar      1 DF1         0.0517
     17 N1          5.2080   -1.7340   19.9080 N.ar      1 DF1        -0.2743
     18 C5          4.2360   -2.6300   19.7290 C.ar      1 DF1         0.1401
     19 N9          2.9070   -2.6020   20.0530 N.pl3     1 DF1        -0.2559
     20 C8          2.3100   -3.7530   19.6430 C.2       1 DF1         0.0827
     21 C16         0.9660   -4.0820   19.8800 C.ar      1 DF1         0.0083
     22 C22         0.4520   -5.3440   19.5320 C.ar      1 DF1        -0.0521
     23 C23        -0.8860   -5.6480   19.8170 C.ar      1 DF1        -0.0617
     24 C24        -1.6660   -4.7510   20.5540 C.ar      1 DF1        -0.0624
     25 C25        -1.1180   -3.5360   20.9730 C.ar      1 DF1        -0.0617
     26 C26         0.1980   -3.2180   20.6430 C.ar      1 DF1        -0.0521
     27 H1          4.6477   -6.8285   19.7029 H         1 DF1         0.0576
     28 H2          4.2856   -9.0329   18.6167 H         1 DF1         0.0604
     29 H3          2.5438   -9.2856   16.8666 H         1 DF1         0.0576
     30 H4          1.1623   -7.3338   16.2066 H         1 DF1         0.0604
     31 H5          1.5449   -5.1237   17.2743 H         1 DF1         0.0576
     32 H6          6.0508   -6.1726   18.6991 H         1 DF1         0.1865
     33 H7          6.0414   -4.7647   16.0962 H         1 DF1         0.0552
     34 H8          6.7218   -6.3964   16.4149 H         1 DF1         0.0552
     35 H9          8.5086   -4.9358   17.8246 H         1 DF1         0.0611
     36 H10        10.0495   -4.9960   15.8904 H         1 DF1         0.0255
     37 H11         8.6572   -5.3353   14.8075 H         1 DF1         0.0255
     38 H12         9.1146   -6.5180   16.0798 H         1 DF1         0.0255
     39 H13         7.4911   -2.9166   17.2599 H         1 DF1         0.2099
     40 H14         7.2347   -1.2568   19.7036 H         1 DF1         0.0987
     41 H15         2.4306   -1.8262   20.5348 H         1 DF1         0.2309
     42 H16         1.0865   -6.0766   19.0466 H         1 DF1         0.0621
     43 H17        -1.3167   -6.5788   19.4661 H         1 DF1         0.0616
     44 H18        -2.6926   -4.9977   20.7994 H         1 DF1         0.0612
     45 H19        -1.7152   -2.8422   21.5535 H         1 DF1         0.0616
     46 H20         0.6257   -2.2834   20.9875 H         1 DF1         0.0621
@<TRIPOS>BOND
     1    1    2 ar 
     2    1    6 ar 
     3    2    3 ar 
     4    3    4 ar 
     5    4    5 ar 
     6    5    6 ar 
     7    6    7 1  
     8    7    8 1  
     9    7   20 2  
    10    8    9 ar 
    11    8   18 ar 
    12    9   10 1  
    13    9   15 ar 
    14   10   11 1  
    15   11   12 1  
    16   12   13 1  
    17   12   14 1  
    18   15   16 ar 
    19   16   17 ar 
    20   17   18 ar 
    21   18   19 1  
    22   19   20 1  
    23   20   21 1  
    24   21   22 ar 
    25   21   26 ar 
    26   22   23 ar 
    27   23   24 ar 
    28   24   25 ar 
    29   25   26 ar 
    30    1   27 1  
    31    2   28 1  
    32    3   29 1  
    33    4   30 1  
    34    5   31 1  
    35   10   32 1  
    36   11   33 1  
    37   11   34 1  
    38   12   35 1  
    39   13   36 1  
    40   13   37 1  
    41   13   38 1  
    42   14   39 1  
    43   16   40 1  
    44   19   41 1  
    45   22   42 1  
    46   23   43 1  
    47   24   44 1  
    48   25   45 1  
    49   26   46 1  
@<TRIPOS>SUBSTRUCTURE
     1 DF1         1

