### 
### Created by X-TOOL on Mon Sep 10 21:12:52 2018
### 

@<TRIPOS>MOLECULE
2bro_ligand
   47    50     1     0     0
SMALL
GAST_HUCK


@<TRIPOS>ATOM
      1 C2          6.0080   -2.2440   19.4940 C.ar      1 DF2         0.0517
      2 C10         2.0170   -4.2580   19.5640 C.2       1 DF2         0.0827
      3 C11         0.6750   -4.5770   19.7620 C.ar      1 DF2         0.0083
      4 C12         0.0310   -5.6330   19.1180 C.ar      1 DF2        -0.0521
      5 C13        -1.3250   -5.9030   19.3630 C.ar      1 DF2        -0.0617
      6 C14        -2.0480   -5.0900   20.2500 C.ar      1 DF2        -0.0624
      7 C15        -1.4140   -4.0250   20.8720 C.ar      1 DF2        -0.0617
      8 C16        -0.0610   -3.7700   20.6310 C.ar      1 DF2        -0.0521
      9 C19         2.4130   -6.5850   17.1240 C.ar      1 DF2        -0.0620
     10 C20         2.3890   -7.9450   16.7750 C.ar      1 DF2        -0.0668
     11 C21         2.8260   -8.9490   17.6610 C.ar      1 DF2        -0.0667
     12 C22         3.3390   -8.7590   18.9190 C.ar      1 DF2        -0.0668
     13 N1          4.7640   -2.1100   19.9200 N.ar      1 DF2        -0.2743
     14 C26         8.6480   -5.4600   15.6850 C.3       1 DF2         0.0721
     15 C6          3.8480   -3.0580   19.6860 C.ar      1 DF2         0.1401
     16 C5          4.1910   -4.2270   19.0050 C.ar      1 DF2         0.0599
     17 O27         7.8400   -6.5480   15.2260 O.3       1 DF2        -0.3924
     18 N9          6.0290   -5.3850   17.9910 N.pl3     1 DF2        -0.2986
     19 C4          5.5280   -4.3360   18.6050 C.ar      1 DF2         0.1221
     20 N3          6.4000   -3.3520   18.8690 N.ar      1 DF2        -0.2715
     21 N90         2.5400   -3.1060   19.9750 N.pl3     1 DF2        -0.2559
     22 C17         3.3500   -7.3800   19.1670 C.ar      1 DF2        -0.0620
     23 C1          3.0190   -4.9960   18.9380 C.2       1 DF2         0.0068
     24 C18         2.9050   -6.3050   18.3830 C.ar      1 DF2        -0.0346
     25 C23         7.7500   -4.5820   16.5380 C.3       1 DF2         0.0986
     26 C8          7.4670   -5.4010   17.8080 C.3       1 DF2         0.0583
     27 O24         8.3350   -3.2640   16.8360 O.3       1 DF2        -0.3875
     28 H1          6.7182   -1.4412   19.6557 H         1 DF2         0.0987
     29 H2          0.5833   -6.2523   18.4205 H         1 DF2         0.0621
     30 H3         -1.8117   -6.7362   18.8690 H         1 DF2         0.0616
     31 H4         -3.0943   -5.2932   20.4473 H         1 DF2         0.0612
     32 H5         -1.9707   -3.3869   21.5487 H         1 DF2         0.0616
     33 H6          0.4227   -2.9352   21.1251 H         1 DF2         0.0621
     34 H7          2.0687   -5.8082   16.4508 H         1 DF2         0.0576
     35 H8          2.0235   -8.2305   15.7952 H         1 DF2         0.0604
     36 H9          2.7493   -9.9733   17.3145 H         1 DF2         0.0576
     37 H10         3.6748   -9.5346   19.5978 H         1 DF2         0.0604
     38 H11         9.0359   -4.8880   14.8293 H         1 DF2         0.0583
     39 H12         9.4890   -5.8384   16.2846 H         1 DF2         0.0583
     40 H13         7.1140   -6.2086   14.7159 H         1 DF2         0.2095
     41 H14         5.4314   -6.1548   17.6576 H         1 DF2         0.1865
     42 H15         2.0144   -2.3571   20.4482 H         1 DF2         0.2309
     43 H16         3.7728   -7.0965   20.1241 H         1 DF2         0.0576
     44 H17         6.8048   -4.4113   16.0019 H         1 DF2         0.0637
     45 H18         7.8234   -6.4340   17.6822 H         1 DF2         0.0553
     46 H19         7.9663   -4.9439   18.6750 H         1 DF2         0.0553
     47 H20         8.4914   -2.7972   16.0235 H         1 DF2         0.2100
@<TRIPOS>BOND
     1    1   13 ar 
     2   20    1 ar 
     3    2    3 1  
     4    2   21 1  
     5   23    2 2  
     6    3    4 ar 
     7    3    8 ar 
     8    4    5 ar 
     9    5    6 ar 
    10    7    6 ar 
    11    8    7 ar 
    12    9   10 ar 
    13   24    9 ar 
    14   10   11 ar 
    15   12   11 ar 
    16   22   12 ar 
    17   15   13 ar 
    18   14   17 1  
    19   25   14 1  
    20   16   15 ar 
    21   15   21 1  
    22   19   16 ar 
    23   16   23 1  
    24   18   19 1  
    25   26   18 1  
    26   19   20 ar 
    27   24   22 ar 
    28   23   24 1  
    29   25   26 1  
    30   25   27 1  
    31    1   28 1  
    32    4   29 1  
    33    5   30 1  
    34    6   31 1  
    35    7   32 1  
    36    8   33 1  
    37    9   34 1  
    38   10   35 1  
    39   11   36 1  
    40   12   37 1  
    41   14   38 1  
    42   14   39 1  
    43   17   40 1  
    44   18   41 1  
    45   21   42 1  
    46   22   43 1  
    47   25   44 1  
    48   26   45 1  
    49   26   46 1  
    50   27   47 1  
@<TRIPOS>SUBSTRUCTURE
     1 DF2         1

