### 
### Created by X-TOOL on Mon Sep 10 21:12:53 2018
### 

@<TRIPOS>MOLECULE
2brp_ligand
   68    70     1     0     0
SMALL
GAST_HUCK


@<TRIPOS>ATOM
      1 CS1        15.3520  -10.8030   33.6460 C.ar      1 SIE        -0.0079
      2 CS2        16.1400  -11.9350   33.9780 C.ar      1 SIE        -0.0607
      3 CS3        17.5700  -11.8280   34.2050 C.ar      1 SIE        -0.0295
      4 CS4        18.2840  -10.5340   34.1050 C.ar      1 SIE         0.1258
      5 CS5        17.4220   -9.3020   33.7610 C.ar      1 SIE        -0.0295
      6 CS6        15.9920   -9.4870   33.5400 C.ar      1 SIE        -0.0607
      7 OS7        19.9090  -10.3910   34.3480 O.3       1 SIE        -0.1533
      8 SS7        20.4990   -9.1530   34.6280 S.o2      1 SIE         0.1789
      9 OS8        20.1980   -8.0870   33.6950 O.2       1 SIE        -0.1228
     10 OS9        20.0830   -8.8480   35.9290 O.2       1 SIE        -0.1228
     11 NS0        22.0030   -9.3470   34.6820 N.am      1 SIE        -0.2380
     12 NI1        12.8380  -11.9980   33.3800 N.pl3     1 SIE        -0.2665
     13 CI2        13.6640  -10.8730   33.3090 C.2       1 SIE         0.0548
     14 CI3        12.9960   -9.7400   32.9910 C.2       1 SIE        -0.0628
     15 CI4        10.5000   -9.3730   32.5400 C.ar      1 SIE        -0.0788
     16 CI5         9.2780  -10.0140   32.4820 C.ar      1 SIE        -0.0442
     17 CI6         9.1470  -11.4080   32.7110 C.ar      1 SIE         0.1116
     18 CI7        10.2700  -12.2240   33.0260 C.ar      1 SIE        -0.0132
     19 CI8        11.5380  -11.5570   33.0880 C.ar      1 SIE         0.0567
     20 CI9        11.6320  -10.1310   32.8570 C.ar      1 SIE        -0.0340
     21 CP1        13.2000  -13.4090   33.7750 C.3       1 SIE         0.0491
     22 CP2        14.1980  -14.0560   32.8290 C.3       1 SIE        -0.0271
     23 CP3        14.7750  -15.2990   33.4680 C.3       1 SIE        -0.0507
     24 CP4        16.2970  -15.2640   33.5420 C.3       1 SIE        -0.0530
     25 CP5        16.8780  -16.6450   33.8900 C.3       1 SIE        -0.0531
     26 CP6        16.2210  -17.2910   35.1260 C.3       1 SIE        -0.0531
     27 CP7        16.3460  -18.8180   35.0780 C.3       1 SIE        -0.0531
     28 CP8        15.9740  -19.3490   33.6900 C.3       1 SIE        -0.0533
     29 CP9        14.6860  -20.1440   33.7150 C.3       1 SIE        -0.0559
     30 CP0        13.9970  -20.1370   32.3600 C.3       1 SIE        -0.0653
     31 O27         7.2000  -11.7610   34.8300 O.2       1 SIE        -0.1230
     32 S27         6.6210  -12.0350   33.5920 S.o2      1 SIE         0.1775
     33 O28         5.6300  -11.1150   33.0920 O.2       1 SIE        -0.1230
     34 O29         7.6720  -12.1250   32.6160 O.3       1 SIE        -0.1606
     35 N20         6.0080  -13.3990   33.6810 N.am      1 SIE        -0.2382
     36 H1         15.6624  -12.9043   34.0644 H         1 SIE         0.0591
     37 H2         18.1315  -12.7210   34.4549 H         1 SIE         0.0547
     38 H3         17.8701   -8.3179   33.6850 H         1 SIE         0.0547
     39 H4         15.3834   -8.6256   33.2897 H         1 SIE         0.0591
     40 H5         22.6011   -8.5684   34.8720 H         1 SIE         0.1658
     41 H6         22.3961  -10.2534   34.5276 H         1 SIE         0.1658
     42 H7         13.4121   -8.7416   32.8644 H         1 SIE         0.0289
     43 H8         10.5798   -8.3097   32.3448 H         1 SIE         0.0523
     44 H9          8.3911   -9.4338   32.2544 H         1 SIE         0.0471
     45 H10        10.1724  -13.2881   33.2085 H         1 SIE         0.0446
     46 H11        12.2827  -14.0160   33.7846 H         1 SIE         0.0591
     47 H12        13.6369  -13.3888   34.7843 H         1 SIE         0.0591
     48 H13        15.0097  -13.3459   32.6125 H         1 SIE         0.0290
     49 H14        13.6899  -14.3288   31.8923 H         1 SIE         0.0290
     50 H15        14.4707  -16.1742   32.8753 H         1 SIE         0.0266
     51 H16        14.3742  -15.3898   34.4883 H         1 SIE         0.0266
     52 H17        16.6005  -14.5436   34.3159 H         1 SIE         0.0265
     53 H18        16.6947  -14.9446   32.5674 H         1 SIE         0.0265
     54 H19        17.9543  -16.5312   34.0866 H         1 SIE         0.0265
     55 H20        16.7312  -17.3125   33.0281 H         1 SIE         0.0265
     56 H21        15.1558  -17.0177   35.1516 H         1 SIE         0.0265
     57 H22        16.7173  -16.9176   36.0339 H         1 SIE         0.0265
     58 H23        15.6709  -19.2592   35.8261 H         1 SIE         0.0265
     59 H24        17.3835  -19.1027   35.3072 H         1 SIE         0.0265
     60 H25        16.7852  -19.9980   33.3286 H         1 SIE         0.0265
     61 H26        15.8527  -18.4974   33.0044 H         1 SIE         0.0265
     62 H27        14.0091  -19.7034   34.4618 H         1 SIE         0.0263
     63 H28        14.9135  -21.1833   33.9943 H         1 SIE         0.0263
     64 H29        13.0680  -20.7231   32.4181 H         1 SIE         0.0230
     65 H30        14.6644  -20.5814   31.6070 H         1 SIE         0.0230
     66 H31        13.7600  -19.1015   32.0745 H         1 SIE         0.0230
     67 H32         5.2475  -13.5654   34.3087 H         1 SIE         0.1657
     68 H33         6.3593  -14.1431   33.1127 H         1 SIE         0.1657
@<TRIPOS>BOND
     1    1    2 ar 
     2    1    6 ar 
     3   13    1 1  
     4    2    3 ar 
     5    3    4 ar 
     6    5    4 ar 
     7    4    7 1  
     8    6    5 ar 
     9    7    8 1  
    10    8    9 2  
    11    8   10 2  
    12    8   11 am 
    13   12   13 1  
    14   19   12 1  
    15   12   21 1  
    16   14   13 2  
    17   20   14 1  
    18   16   15 ar 
    19   15   20 ar 
    20   17   16 ar 
    21   17   18 ar 
    22   34   17 1  
    23   18   19 ar 
    24   19   20 ar 
    25   21   22 1  
    26   22   23 1  
    27   23   24 1  
    28   24   25 1  
    29   25   26 1  
    30   26   27 1  
    31   27   28 1  
    32   28   29 1  
    33   29   30 1  
    34   32   31 2  
    35   32   33 2  
    36   32   34 1  
    37   32   35 am 
    38    2   36 1  
    39    3   37 1  
    40    5   38 1  
    41    6   39 1  
    42   11   40 1  
    43   11   41 1  
    44   14   42 1  
    45   15   43 1  
    46   16   44 1  
    47   18   45 1  
    48   21   46 1  
    49   21   47 1  
    50   22   48 1  
    51   22   49 1  
    52   23   50 1  
    53   23   51 1  
    54   24   52 1  
    55   24   53 1  
    56   25   54 1  
    57   25   55 1  
    58   26   56 1  
    59   26   57 1  
    60   27   58 1  
    61   27   59 1  
    62   28   60 1  
    63   28   61 1  
    64   29   62 1  
    65   29   63 1  
    66   30   64 1  
    67   30   65 1  
    68   30   66 1  
    69   35   67 1  
    70   35   68 1  
@<TRIPOS>SUBSTRUCTURE
     1 SIE         1

