### 
### Created by X-TOOL on Mon Sep 10 21:12:52 2018
### 

@<TRIPOS>MOLECULE
2bt9_ligand
   26    26     1     0     0
SMALL
GAST_HUCK


@<TRIPOS>ATOM
      1 C1         -2.4350   36.7850   -2.3510 C.3       1 MFU         0.1875
      2 C2         -2.9190   36.6330   -0.9040 C.3       1 MFU         0.1341
      3 C3         -4.3520   37.0810   -0.7790 C.3       1 MFU         0.1140
      4 C4         -5.2100   36.3010   -1.7940 C.3       1 MFU         0.1095
      5 C5         -4.6550   36.5190   -3.1780 C.3       1 MFU         0.0873
      6 C6         -5.3950   35.7690   -4.2550 C.3       1 MFU        -0.0361
      7 O1         -2.4050   38.1720   -2.6310 O.3       1 MFU        -0.3520
      8 O2         -2.0960   37.4080    0.0330 O.3       1 MFU        -0.3841
      9 O3         -4.8330   36.9990    0.5560 O.3       1 MFU        -0.3864
     10 O4         -5.1700   34.9080   -1.5320 O.3       1 MFU        -0.3866
     11 O5         -3.2760   36.0670   -3.2040 O.3       1 MFU        -0.3431
     12 CM         -1.8430   38.4460   -3.8450 C.3       1 MFU         0.0395
     13 H1         -1.4167   36.3798   -2.4456 H         1 MFU         0.0937
     14 H2         -2.8542   35.5698   -0.6294 H         1 MFU         0.0671
     15 H3         -4.3933   38.1428   -1.0634 H         1 MFU         0.0648
     16 H4         -6.2494   36.6575   -1.7434 H         1 MFU         0.0646
     17 H5         -4.6975   37.5946   -3.4045 H         1 MFU         0.0621
     18 H6         -4.9329   35.9782   -5.2311 H         1 MFU         0.0255
     19 H7         -6.4464   36.0919   -4.2704 H         1 MFU         0.0255
     20 H8         -5.3459   34.6894   -4.0499 H         1 MFU         0.0255
     21 H9         -2.4034   37.2602    0.9197 H         1 MFU         0.2101
     22 H10        -4.8436   36.0902    0.8323 H         1 MFU         0.2100
     23 H11        -5.5152   34.7403   -0.6629 H         1 MFU         0.2100
     24 H12        -1.8444   39.5331   -4.0127 H         1 MFU         0.0525
     25 H13        -2.4238   37.9520   -4.6378 H         1 MFU         0.0525
     26 H14        -0.8081   38.0736   -3.8624 H         1 MFU         0.0525
@<TRIPOS>BOND
     1    1    2 1  
     2    1    7 1  
     3    1   11 1  
     4    2    3 1  
     5    2    8 1  
     6    3    4 1  
     7    3    9 1  
     8    4    5 1  
     9    4   10 1  
    10    5    6 1  
    11    5   11 1  
    12    7   12 1  
    13    1   13 1  
    14    2   14 1  
    15    3   15 1  
    16    4   16 1  
    17    5   17 1  
    18    6   18 1  
    19    6   19 1  
    20    6   20 1  
    21    8   21 1  
    22    9   22 1  
    23   10   23 1  
    24   12   24 1  
    25   12   25 1  
    26   12   26 1  
@<TRIPOS>SUBSTRUCTURE
     1 MFU         1

