### 
### Created by X-TOOL on Mon Sep 10 21:12:53 2018
### 

@<TRIPOS>MOLECULE
2btr_ligand
   33    34     1     0     0
SMALL
GAST_HUCK


@<TRIPOS>ATOM
      1 O11        10.8800   45.7130   25.9630 O.2       1 U73        -0.3779
      2 C10        10.0890   46.3610   25.2810 C.2       1 U73         0.2257
      3 N9         10.3410   46.6840   24.0190 N.am      1 U73        -0.1973
      4 C3         11.6360   46.4270   23.2990 C.2       1 U73         0.1984
      5 N4         11.8530   46.7380   21.9730 N.2       1 U73        -0.3385
      6 C5         13.0420   46.3410   21.6950 C.2       1 U73        -0.0513
      7 S2         12.8870   45.4920   24.0880 S.3       1 U73         0.0183
      8 C1         13.7230   45.6730   22.6400 C.2       1 U73         0.0152
      9 C6         15.1040   45.0970   22.3950 C.3       1 U73        -0.0089
     10 C8         14.9650   43.6330   21.9270 C.3       1 U73        -0.0535
     11 C7         16.0560   45.2310   23.5780 C.3       1 U73        -0.0535
     12 C12         8.7240   46.7220   25.8230 C.3       1 U73         0.0841
     13 C13         8.7100   47.8760   26.7700 C.ar      1 U73         0.0044
     14 C14         8.9150   47.6790   28.1240 C.ar      1 U73        -0.0380
     15 C15         8.9160   48.7900   28.9670 C.ar      1 U73        -0.0400
     16 C16         8.7150   50.0330   28.4280 C.ar      1 U73         0.0045
     17 N17         8.5000   50.1830   27.1160 N.ar      1 U73        -0.3039
     18 C18         8.4910   49.1420   26.2830 C.ar      1 U73         0.0149
     19 H1          9.6110   47.1347   23.5052 H         1 U73         0.2385
     20 H2         13.4855   46.5404   20.7206 H         1 U73         0.0346
     21 H3         15.5505   45.6683   21.5678 H         1 U73         0.0446
     22 H4         15.9640   43.2091   21.7474 H         1 U73         0.0253
     23 H5         14.3798   43.5996   20.9962 H         1 U73         0.0253
     24 H6         14.4522   43.0468   22.7038 H         1 U73         0.0253
     25 H7         16.1237   46.2876   23.8762 H         1 U73         0.0253
     26 H8         17.0530   44.8669   23.2894 H         1 U73         0.0253
     27 H9         15.6782   44.6353   24.4220 H         1 U73         0.0253
     28 H10         8.3215   45.8435   26.3486 H         1 U73         0.0682
     29 H11         8.0729   46.9703   24.9719 H         1 U73         0.0682
     30 H12         9.0715   46.6826   28.5211 H         1 U73         0.0682
     31 H13         9.0735   48.6716   30.0329 H         1 U73         0.0694
     32 H14         8.7303   50.9051   29.0717 H         1 U73         0.0769
     33 H15         8.3115   49.2940   25.2248 H         1 U73         0.0769
@<TRIPOS>BOND
     1    1    2 2  
     2    2    3 am 
     3    2   12 1  
     4    3    4 1  
     5    4    5 2  
     6    4    7 1  
     7    5    6 1  
     8    6    8 2  
     9    7    8 1  
    10    8    9 1  
    11    9   10 1  
    12    9   11 1  
    13   12   13 1  
    14   13   14 ar 
    15   13   18 ar 
    16   14   15 ar 
    17   15   16 ar 
    18   16   17 ar 
    19   17   18 ar 
    20    3   19 1  
    21    6   20 1  
    22    9   21 1  
    23   10   22 1  
    24   10   23 1  
    25   10   24 1  
    26   11   25 1  
    27   11   26 1  
    28   11   27 1  
    29   12   28 1  
    30   12   29 1  
    31   14   30 1  
    32   15   31 1  
    33   16   32 1  
    34   18   33 1  
@<TRIPOS>SUBSTRUCTURE
     1 U73         1

