### 
### Created by X-TOOL on Mon Sep 10 21:12:53 2018
### 

@<TRIPOS>MOLECULE
2bts_ligand
   34    35     1     0     0
SMALL
GAST_HUCK


@<TRIPOS>ATOM
      1 O1          6.5100   11.9080   30.1620 O.2       1 U32        -0.1520
      2 O2          7.3070   10.6340   28.1420 O.2       1 U32        -0.1520
      3 C2          0.3210    4.1030   29.4100 C.2       1 U32        -0.0449
      4 C3         -0.3050    5.0280   28.6610 C.2       1 U32         0.0194
      5 C4         -1.6110    4.6700   27.9470 C.3       1 U32        -0.0072
      6 C5         -2.6180    5.7970   28.1370 C.3       1 U32        -0.0531
      7 C6         -1.5320    4.2670   26.4850 C.3       1 U32        -0.0531
      8 S7          0.3970    6.5600   28.6870 S.3       1 U32         0.0210
      9 C8          1.6150    5.8850   29.8150 C.2       1 U32         0.1912
     10 N9          1.3730    4.4750   30.0180 N.2       1 U32        -0.3316
     11 N11         5.2210   12.1840   27.9270 N.am      1 U32        -0.2622
     12 C13         3.9780    9.5890   28.5170 C.ar      1 U32        -0.0451
     13 C14         5.1310    9.9070   29.2370 C.ar      1 U32         0.0960
     14 N90         2.8450    6.5290   30.3300 N.pl3     1 U32        -0.2421
     15 C16         5.4840    9.0940   30.3140 C.ar      1 U32        -0.0451
     16 C17         4.7120    7.9690   30.6220 C.ar      1 U32        -0.0366
     17 C18         3.5420    7.6390   29.9030 C.ar      1 U32         0.0658
     18 C19         3.1910    8.4640   28.8330 C.ar      1 U32        -0.0366
     19 S16         6.0360   11.2020   28.8570 S.o2      1 U32         0.0606
     20 H1         -0.0554    3.0844   29.4915 H         1 U32         0.0360
     21 H2         -2.0066    3.7890   28.4737 H         1 U32         0.0453
     22 H3         -3.5567    5.5403   27.6241 H         1 U32         0.0254
     23 H4         -2.2114    6.7273   27.7136 H         1 U32         0.0254
     24 H5         -2.8132    5.9372   29.2104 H         1 U32         0.0254
     25 H6         -0.8010    3.4534   26.3679 H         1 U32         0.0254
     26 H7         -1.2174    5.1320   25.8827 H         1 U32         0.0254
     27 H8         -2.5203    3.9236   26.1454 H         1 U32         0.0254
     28 H9          4.3852   12.6157   28.2663 H         1 U32         0.1633
     29 H10         5.5406   12.3742   26.9987 H         1 U32         0.1633
     30 H11         3.6799   10.2255   27.6917 H         1 U32         0.0606
     31 H12         3.2524    6.0648   31.1543 H         1 U32         0.2188
     32 H13         6.3559    9.3338   30.9118 H         1 U32         0.0606
     33 H14         5.0221    7.3289   31.4400 H         1 U32         0.0535
     34 H15         2.3099    8.2383   28.2433 H         1 U32         0.0535
@<TRIPOS>BOND
     1   19    1 2  
     2   19    2 2  
     3    3    4 2  
     4   10    3 1  
     5    4    5 1  
     6    8    4 1  
     7    5    6 1  
     8    5    7 1  
     9    9    8 1  
    10    9   10 2  
    11   14    9 1  
    12   19   11 am 
    13   13   12 ar 
    14   12   18 ar 
    15   15   13 ar 
    16   13   19 1  
    17   17   14 1  
    18   16   15 ar 
    19   16   17 ar 
    20   17   18 ar 
    21    3   20 1  
    22    5   21 1  
    23    6   22 1  
    24    6   23 1  
    25    6   24 1  
    26    7   25 1  
    27    7   26 1  
    28    7   27 1  
    29   11   28 1  
    30   11   29 1  
    31   12   30 1  
    32   14   31 1  
    33   15   32 1  
    34   16   33 1  
    35   18   34 1  
@<TRIPOS>SUBSTRUCTURE
     1 U32         1

