### 
### Created by X-TOOL on Mon Sep 10 21:12:55 2018
### 

@<TRIPOS>MOLECULE
2bu5_ligand
   47    48     1     0     0
SMALL
GAST_HUCK


@<TRIPOS>ATOM
      1 N1         57.0590   60.1930   76.8260 N.am      1 TF1        -0.2629
      2 C1         57.6740   59.2960   75.9190 C.2       1 TF1         0.2392
      3 C2         56.3930   61.3420   76.1390 C.3       1 TF1         0.0626
      4 C3         56.9480   60.1200   78.3280 C.3       1 TF1         0.0573
      5 C4         58.4190   57.9970   76.4570 C.3       1 TF1         0.2377
      6 O1         57.6330   59.5100   74.7010 O.2       1 TF1        -0.3412
      7 C5         56.8310   62.6470   76.8420 C.3       1 TF1         0.0569
      8 C6         54.8590   61.1180   76.1290 C.3       1 TF1        -0.0397
      9 C7         57.2820   61.4430   79.0410 C.3       1 TF1         0.0623
     10 C8         57.4480   56.8390   76.9710 C.3       1 TF1         0.4246
     11 C9         59.1690   57.4210   75.2140 C.3       1 TF1        -0.0202
     12 O2         59.3740   58.2940   77.3420 O.3       1 TF1        -0.3773
     13 N2         56.5630   62.5260   78.3040 N.am      1 TF1        -0.2644
     14 C10        58.8030   61.7500   79.1120 C.3       1 TF1        -0.0399
     15 F1         56.7270   56.3510   75.9690 F         1 TF1        -0.1686
     16 F2         58.1330   55.8150   77.4430 F         1 TF1        -0.1686
     17 F3         56.5910   57.2290   77.9000 F         1 TF1        -0.1686
     18 C11        55.6790   63.4330   78.8960 C.2       1 TF1         0.2134
     19 C12        55.3720   63.3970   80.3360 C.ar      1 TF1         0.0582
     20 O3         55.1450   64.2860   78.1960 O.2       1 TF1        -0.3810
     21 C13        56.3360   63.8990   81.2960 C.ar      1 TF1        -0.0315
     22 C14        54.1010   62.9060   80.7450 C.ar      1 TF1        -0.0315
     23 C15        55.9980   63.9090   82.6870 C.ar      1 TF1        -0.0221
     24 C16        53.7610   62.9150   82.1340 C.ar      1 TF1        -0.0221
     25 C17        54.7090   63.4140   83.0880 C.ar      1 TF1         0.0992
     26 C18        54.3570   63.3930   84.4720 C.1       1 TF1         0.1035
     27 N3         54.0620   63.3670   85.5920 N.1       1 TF1        -0.3262
     28 H1         56.7359   61.3836   75.0946 H         1 TF1         0.0577
     29 H2         57.6414   59.3465   78.6898 H         1 TF1         0.0547
     30 H3         55.9167   59.8377   78.5862 H         1 TF1         0.0547
     31 H4         56.2628   63.4950   76.4322 H         1 TF1         0.0545
     32 H5         57.9060   62.8117   76.6768 H         1 TF1         0.0545
     33 H6         54.3684   61.9630   75.6237 H         1 TF1         0.0253
     34 H7         54.4921   61.0463   77.1635 H         1 TF1         0.0253
     35 H8         54.6280   60.1858   75.5926 H         1 TF1         0.0253
     36 H9         56.9003   61.3913   80.0713 H         1 TF1         0.0575
     37 H10        59.8567   58.1816   74.8158 H         1 TF1         0.0247
     38 H11        58.4379   57.1462   74.4394 H         1 TF1         0.0247
     39 H12        59.7407   56.5296   75.5113 H         1 TF1         0.0247
     40 H13        59.9014   57.5216   77.5082 H         1 TF1         0.2083
     41 H14        58.9601   62.7061   79.6328 H         1 TF1         0.0253
     42 H15        59.2117   61.8161   78.0929 H         1 TF1         0.0253
     43 H16        59.3143   60.9453   79.6607 H         1 TF1         0.0253
     44 H17        57.3017   64.2626   80.9640 H         1 TF1         0.0690
     45 H18        53.3976   62.5290   80.0114 H         1 TF1         0.0690
     46 H19        56.7001   64.2825   83.4236 H         1 TF1         0.0727
     47 H20        52.7955   62.5480   82.4631 H         1 TF1         0.0727
@<TRIPOS>BOND
     1    1    2 am 
     2    1    3 1  
     3    1    4 1  
     4    2    5 1  
     5    2    6 2  
     6    3    7 1  
     7    3    8 1  
     8    4    9 1  
     9    5   10 1  
    10    5   11 1  
    11    5   12 1  
    12    7   13 1  
    13    9   13 1  
    14    9   14 1  
    15   10   15 1  
    16   10   16 1  
    17   10   17 1  
    18   13   18 am 
    19   18   19 1  
    20   18   20 2  
    21   19   21 ar 
    22   19   22 ar 
    23   21   23 ar 
    24   22   24 ar 
    25   23   25 ar 
    26   24   25 ar 
    27   25   26 1  
    28   26   27 3  
    29    3   28 1  
    30    4   29 1  
    31    4   30 1  
    32    7   31 1  
    33    7   32 1  
    34    8   33 1  
    35    8   34 1  
    36    8   35 1  
    37    9   36 1  
    38   11   37 1  
    39   11   38 1  
    40   11   39 1  
    41   12   40 1  
    42   14   41 1  
    43   14   42 1  
    44   14   43 1  
    45   21   44 1  
    46   22   45 1  
    47   23   46 1  
    48   24   47 1  
@<TRIPOS>SUBSTRUCTURE
     1 TF1         1

