### 
### Created by X-TOOL on Mon Sep 10 21:12:54 2018
### 

@<TRIPOS>MOLECULE
2bua_ligand
   31    32     1     0     0
SMALL
GAST_HUCK


@<TRIPOS>ATOM
      1 C1         -5.9900   21.2360    4.0370 C.3       1 007        -0.0662
      2 C2         -6.0320   22.7600    4.0340 C.3       1 007        -0.0604
      3 C3         -7.2930   20.7280    4.6940 C.3       1 007         0.0030
      4 C4         -7.4930   23.1630    4.1870 C.3       1 007        -0.0604
      5 C5         -8.2910   21.8740    4.4110 C.3       1 007        -0.0662
      6 C6         -7.8350   19.3700    4.0770 C.ar      1 007        -0.0418
      7 C7         -6.9200   18.4100    3.5380 C.ar      1 007        -0.0391
      8 C8         -9.2290   19.0520    4.0350 C.ar      1 007        -0.0391
      9 C9         -7.3840   17.2000    2.9890 C.ar      1 007        -0.0324
     10 C10        -9.6880   17.8370    3.4810 C.ar      1 007        -0.0324
     11 C11        -8.7680   16.9150    2.9600 C.ar      1 007        -0.0340
     12 C12        -7.0280   20.5710    6.2270 C.3       1 007        -0.0517
     13 N13        -7.0990   19.1890    6.7340 N.4       1 007         0.2128
     14 H1         -5.1201   20.8869    4.6127 H         1 007         0.0177
     15 H2         -5.9209   20.8617    3.0050 H         1 007         0.0177
     16 H3         -5.6301   23.1476    3.0863 H         1 007         0.0258
     17 H4         -5.4406   23.1563    4.8725 H         1 007         0.0258
     18 H5         -7.8426   23.6704    3.2758 H         1 007         0.0258
     19 H6         -7.6113   23.8354    5.0495 H         1 007         0.0258
     20 H7         -8.9666   21.9994    5.2700 H         1 007         0.0177
     21 H8         -8.8803   21.6405    3.5120 H         1 007         0.0177
     22 H9         -5.8562   18.6177    3.5529 H         1 007         0.0850
     23 H10        -9.9472   19.7577    4.4364 H         1 007         0.0850
     24 H11        -6.6769   16.4836    2.5867 H         1 007         0.0698
     25 H12       -10.7492   17.6171    3.4583 H         1 007         0.0698
     26 H13        -9.1193   15.9820    2.5343 H         1 007         0.0856
     27 H14        -7.7764   21.1707    6.7657 H         1 007         0.0715
     28 H15        -6.0222   20.9615    6.4410 H         1 007         0.0715
     29 H16        -6.9160   19.1850    7.7252 H         1 007         0.1986
     30 H17        -6.4110   18.6225    6.2631 H         1 007         0.1986
     31 H18        -8.0185   18.8143    6.5606 H         1 007         0.1986
@<TRIPOS>BOND
     1    1    2 1  
     2    1    3 1  
     3    2    4 1  
     4    3    5 1  
     5    3    6 1  
     6    3   12 1  
     7    4    5 1  
     8    6    7 ar 
     9    6    8 ar 
    10    7    9 ar 
    11    8   10 ar 
    12    9   11 ar 
    13   10   11 ar 
    14   12   13 1  
    15    1   14 1  
    16    1   15 1  
    17    2   16 1  
    18    2   17 1  
    19    4   18 1  
    20    4   19 1  
    21    5   20 1  
    22    5   21 1  
    23    7   22 1  
    24    8   23 1  
    25    9   24 1  
    26   10   25 1  
    27   11   26 1  
    28   12   27 1  
    29   12   28 1  
    30   13   29 1  
    31   13   30 1  
    32   13   31 1  
@<TRIPOS>SUBSTRUCTURE
     1 007         1

