### 
### Created by X-TOOL on Mon Sep 10 21:12:55 2018
### 

@<TRIPOS>MOLECULE
2bub_ligand
   55    57     1     0     0
SMALL
GAST_HUCK


@<TRIPOS>ATOM
      1 O16        47.0820   49.7140   34.2890 O.2       1 FPB        -0.3966
      2 C12        46.5600   50.7110   33.8310 C.2       1 FPB         0.1843
      3 C11        46.4940   51.9720   34.6730 C.3       1 FPB         0.0820
      4 C10        46.7510   51.6010   36.1220 C.3       1 FPB         0.0015
      5 N18        46.3760   52.7420   36.9540 N.4       1 FPB         0.2238
      6 C9         48.2490   51.3790   36.2440 C.3       1 FPB         0.0270
      7 C3         48.5210   50.7430   37.5870 C.ar      1 FPB        -0.0038
      8 C5         49.1780   51.4490   38.5850 C.ar      1 FPB         0.1333
      9 F8         49.5850   52.6730   38.3580 F         1 FPB        -0.1891
     10 C7         49.4280   50.8710   39.8190 C.ar      1 FPB        -0.0349
     11 C6         49.0020   49.5810   40.0650 C.ar      1 FPB        -0.0706
     12 C4         48.3410   48.8840   39.0740 C.ar      1 FPB        -0.0726
     13 C2         48.0950   49.4570   37.8390 C.ar      1 FPB        -0.0618
     14 N13        46.0090   50.7130   32.5610 N.am      1 FPB        -0.2681
     15 C14        46.0040   49.5940   31.6120 C.3       1 FPB         0.0650
     16 C21        44.7400   49.8670   30.8000 C.3       1 FPB        -0.0259
     17 C20        44.7500   51.3840   30.6220 C.3       1 FPB        -0.0304
     18 C19        45.3620   51.8870   31.9370 C.3       1 FPB         0.0343
     19 C15        47.2930   49.7230   30.7590 C.3       1 FPB         0.0536
     20 N17        48.4600   49.4140   31.6200 N.am      1 FPB        -0.2839
     21 C22        49.3460   50.3780   32.1230 C.2       1 FPB         0.2050
     22 O1         49.1780   51.5570   31.8490 O.2       1 FPB        -0.3847
     23 C25        50.4830   49.9870   33.0100 C.ar      1 FPB         0.0498
     24 C27        51.1060   48.7380   32.8840 C.ar      1 FPB        -0.0419
     25 C28        52.1570   48.4090   33.7450 C.ar      1 FPB        -0.0562
     26 C26        52.5940   49.2990   34.7340 C.ar      1 FPB        -0.0575
     27 C24        51.9780   50.5350   34.8650 C.ar      1 FPB        -0.0562
     28 C23        50.9300   50.8680   34.0080 C.ar      1 FPB        -0.0419
     29 H1         45.4978   52.4289   34.5786 H         1 FPB         0.0560
     30 H2         47.2585   52.6856   34.3321 H         1 FPB         0.0560
     31 H3         46.1889   50.7012   36.4125 H         1 FPB         0.0899
     32 H4         46.5383   52.5187   37.9234 H         1 FPB         0.2000
     33 H5         45.3997   52.9517   36.8165 H         1 FPB         0.2000
     34 H6         46.9313   53.5428   36.6962 H         1 FPB         0.2000
     35 H7         48.7757   52.3422   36.1741 H         1 FPB         0.0475
     36 H8         48.5941   50.7131   35.4394 H         1 FPB         0.0475
     37 H9         49.9543   51.4276   40.5859 H         1 FPB         0.0585
     38 H10        49.1852   49.1194   41.0286 H         1 FPB         0.0549
     39 H11        48.0089   47.8703   39.2666 H         1 FPB         0.0565
     40 H12        47.5699   48.8972   37.0736 H         1 FPB         0.0546
     41 H13        45.9628   48.6136   32.1090 H         1 FPB         0.0578
     42 H14        43.8432   49.5415   31.3475 H         1 FPB         0.0289
     43 H15        44.7805   49.3568   29.8263 H         1 FPB         0.0289
     44 H16        43.7296   51.7722   30.4879 H         1 FPB         0.0285
     45 H17        45.3696   51.6762   29.7614 H         1 FPB         0.0285
     46 H18        46.1061   52.6719   31.7365 H         1 FPB         0.0522
     47 H19        44.5767   52.2859   32.5960 H         1 FPB         0.0522
     48 H20        47.3798   50.7484   30.3705 H         1 FPB         0.0542
     49 H21        47.2542   49.0145   29.9185 H         1 FPB         0.0542
     50 H22        48.6260   48.4568   31.8573 H         1 FPB         0.1845
     51 H23        50.7766   48.0350   32.1275 H         1 FPB         0.0669
     52 H24        52.6436   47.4455   33.6451 H         1 FPB         0.0629
     53 H25        53.4091   49.0236   35.3935 H         1 FPB         0.0653
     54 H26        52.3078   51.2340   35.6251 H         1 FPB         0.0629
     55 H27        50.4473   51.8327   34.1149 H         1 FPB         0.0669
@<TRIPOS>BOND
     1    1    2 2  
     2    2    3 1  
     3    2   14 am 
     4    3    4 1  
     5    4    5 1  
     6    4    6 1  
     7    6    7 1  
     8    7    8 ar 
     9    7   13 ar 
    10    8    9 1  
    11    8   10 ar 
    12   10   11 ar 
    13   11   12 ar 
    14   12   13 ar 
    15   14   15 1  
    16   14   18 1  
    17   15   16 1  
    18   15   19 1  
    19   16   17 1  
    20   17   18 1  
    21   19   20 1  
    22   20   21 am 
    23   21   22 2  
    24   21   23 1  
    25   23   24 ar 
    26   23   28 ar 
    27   24   25 ar 
    28   25   26 ar 
    29   26   27 ar 
    30   27   28 ar 
    31    3   29 1  
    32    3   30 1  
    33    4   31 1  
    34    5   32 1  
    35    5   33 1  
    36    5   34 1  
    37    6   35 1  
    38    6   36 1  
    39   10   37 1  
    40   11   38 1  
    41   12   39 1  
    42   13   40 1  
    43   15   41 1  
    44   16   42 1  
    45   16   43 1  
    46   17   44 1  
    47   17   45 1  
    48   18   46 1  
    49   18   47 1  
    50   19   48 1  
    51   19   49 1  
    52   20   50 1  
    53   24   51 1  
    54   25   52 1  
    55   26   53 1  
    56   27   54 1  
    57   28   55 1  
@<TRIPOS>SUBSTRUCTURE
     1 FPB         1

