### 
### Created by X-TOOL on Mon Sep 10 21:12:54 2018
### 

@<TRIPOS>MOLECULE
2buc_ligand
   49    51     1     0     0
SMALL
GAST_HUCK


@<TRIPOS>ATOM
      1 F7         -5.7220   17.7240    4.1630 F         1 008        -0.1891
      2 C1         -7.0390   17.9280    4.0130 C.ar      1 008         0.1333
      3 C2         -7.8220   16.9170    3.4580 C.ar      1 008        -0.0349
      4 C3         -9.1930   17.1080    3.2950 C.ar      1 008        -0.0706
      5 C4         -9.7750   18.3100    3.6910 C.ar      1 008        -0.0726
      6 C5         -8.9910   19.3190    4.2500 C.ar      1 008        -0.0618
      7 C6         -7.6180   19.1290    4.4140 C.ar      1 008        -0.0038
      8 C8         -6.7670   20.2270    5.0190 C.3       1 008         0.0270
      9 C9         -7.1360   20.4440    6.4910 C.3       1 008         0.0015
     10 N10        -6.7370   19.2730    7.2430 N.4       1 008         0.2238
     11 C11        -6.4380   21.6700    7.0810 C.3       1 008         0.0822
     12 C12        -6.9540   23.0040    6.5600 C.2       1 008         0.1882
     13 O13        -7.8810   23.0490    5.7640 O.2       1 008        -0.3963
     14 N14        -6.3070   24.1030    6.9740 N.am      1 008        -0.2396
     15 C19        -5.2060   24.1090    7.9400 C.3       1 008         0.0680
     16 C18        -5.5520   25.0590    9.0600 C.ar      1 008        -0.0184
     17 C20        -5.4210   24.7070   10.4030 C.ar      1 008        -0.0649
     18 C21        -5.7580   25.6400   11.3870 C.ar      1 008        -0.0754
     19 C22        -6.2250   26.9050   11.0200 C.ar      1 008        -0.0755
     20 C17        -6.0160   26.3110    8.6970 C.ar      1 008        -0.0346
     21 C23        -6.3500   27.2500    9.6720 C.ar      1 008        -0.0666
     22 C16        -6.1350   26.6250    7.2210 C.3       1 008         0.0194
     23 C15        -6.6770   25.4280    6.4170 C.3       1 008         0.1436
     24 C24        -6.2100   25.5660    4.9930 C.2       1 008         0.2014
     25 O25        -6.9920   25.9950    4.1640 O.2       1 008        -0.3945
     26 N26        -4.9670   25.2160    4.6620 N.am      1 008        -0.2988
     27 H1         -7.3648   15.9826    3.1533 H         1 008         0.0585
     28 H2         -9.8039   16.3243    2.8618 H         1 008         0.0549
     29 H3        -10.8408   18.4617    3.5643 H         1 008         0.0565
     30 H4         -9.4487   20.2523    4.5576 H         1 008         0.0546
     31 H5         -6.9330   21.1614    4.4629 H         1 008         0.0475
     32 H6         -5.7067   19.9426    4.9500 H         1 008         0.0475
     33 H7         -8.2246   20.5806    6.5705 H         1 008         0.0899
     34 H8         -6.9735   19.4009    8.2145 H         1 008         0.2000
     35 H9         -5.7418   19.1397    7.1543 H         1 008         0.2000
     36 H10        -7.2179   18.4631    6.8840 H         1 008         0.2000
     37 H11        -5.3658   21.6011    6.8453 H         1 008         0.0561
     38 H12        -6.5756   21.6513    8.1722 H         1 008         0.0561
     39 H13        -4.2811   24.4407    7.4455 H         1 008         0.0673
     40 H14        -5.0626   23.0962    8.3445 H         1 008         0.0673
     41 H15        -5.0623   23.7223   10.6800 H         1 008         0.0538
     42 H16        -5.6572   25.3826   12.4352 H         1 008         0.0541
     43 H17        -6.4921   27.6235   11.7865 H         1 008         0.0541
     44 H18        -6.7021   28.2350    9.3878 H         1 008         0.0537
     45 H19        -5.1406   26.8917    6.8336 H         1 008         0.0459
     46 H20        -6.8189   27.4771    7.0934 H         1 008         0.0459
     47 H21        -7.7753   25.4886    6.4276 H         1 008         0.0825
     48 H22        -4.6569   25.3078    3.7157 H         1 008         0.1815
     49 H23        -4.3447   24.8617    5.3600 H         1 008         0.1815
@<TRIPOS>BOND
     1    1    2 1  
     2    2    3 ar 
     3    2    7 ar 
     4    3    4 ar 
     5    4    5 ar 
     6    5    6 ar 
     7    6    7 ar 
     8    7    8 1  
     9    8    9 1  
    10    9   10 1  
    11    9   11 1  
    12   11   12 1  
    13   12   13 2  
    14   12   14 am 
    15   14   15 1  
    16   14   23 1  
    17   15   16 1  
    18   16   17 ar 
    19   16   20 ar 
    20   17   18 ar 
    21   18   19 ar 
    22   19   21 ar 
    23   20   21 ar 
    24   20   22 1  
    25   22   23 1  
    26   23   24 1  
    27   24   25 2  
    28   24   26 am 
    29    3   27 1  
    30    4   28 1  
    31    5   29 1  
    32    6   30 1  
    33    8   31 1  
    34    8   32 1  
    35    9   33 1  
    36   10   34 1  
    37   10   35 1  
    38   10   36 1  
    39   11   37 1  
    40   11   38 1  
    41   15   39 1  
    42   15   40 1  
    43   17   41 1  
    44   18   42 1  
    45   19   43 1  
    46   21   44 1  
    47   22   45 1  
    48   22   46 1  
    49   23   47 1  
    50   26   48 1  
    51   26   49 1  
@<TRIPOS>SUBSTRUCTURE
     1 008         1

