### 
### Created by X-TOOL on Mon Sep 10 21:12:53 2018
### 

@<TRIPOS>MOLECULE
2buv_ligand
   16    16     1     0     0
SMALL
GAST_HUCK


@<TRIPOS>ATOM
      1 C1         12.1990  -13.9010   41.4500 C.ar      1 DHB        -0.0099
      2 C2         11.0860  -14.0810   42.2540 C.ar      1 DHB        -0.0276
      3 C3          9.8260  -13.7250   41.7910 C.ar      1 DHB         0.1197
      4 O3          8.7140  -13.9070   42.6010 O.3       1 DHB        -0.3362
      5 C4          9.6810  -13.1840   40.5280 C.ar      1 DHB         0.1194
      6 O4          8.4270  -12.8270   40.0750 O.3       1 DHB        -0.3347
      7 C5         10.7930  -12.9990   39.7170 C.ar      1 DHB        -0.0375
      8 C6         12.0530  -13.3620   40.1760 C.ar      1 DHB        -0.0674
      9 C          13.5210  -14.2720   41.9400 C.2       1 DHB         0.0531
     10 O1         13.9950  -13.6890   42.9500 O.co2     1 DHB        -0.5637
     11 O2         14.1970  -15.1670   41.3600 O.co2     1 DHB        -0.5637
     12 H1         11.1985  -14.5008   43.2471 H         1 DHB         0.0540
     13 H2          7.9363  -13.6157   42.1395 H         1 DHB         0.2442
     14 H3          8.4978  -12.4737   39.1959 H         1 DHB         0.2455
     15 H4         10.6780  -12.5720   38.7273 H         1 DHB         0.0518
     16 H5         12.9215  -13.2253   39.5419 H         1 DHB         0.0531
@<TRIPOS>BOND
     1    1    2 ar 
     2    1    8 ar 
     3    1    9 1  
     4    2    3 ar 
     5    3    4 1  
     6    3    5 ar 
     7    5    6 1  
     8    5    7 ar 
     9    7    8 ar 
    10    9   10 ar 
    11    9   11 ar 
    12    2   12 1  
    13    4   13 1  
    14    6   14 1  
    15    7   15 1  
    16    8   16 1  
@<TRIPOS>SUBSTRUCTURE
     1 DHB         1

