### 
### Created by X-TOOL on Sun Sep  9 21:50:19 2018
### 

@<TRIPOS>MOLECULE
2bv4_ligand
   27    27     1     0     0
SMALL
GAST_HUCK


@<TRIPOS>ATOM
      1 C1          4.9120   10.5980   -3.1590 C.3       1 NON         0.1876
      2 C2          6.1880    9.8340   -2.9310 C.3       1 NON         0.1341
      3 C3          5.8520    8.4860   -2.2890 C.3       1 NON         0.1141
      4 C4          4.9470    8.6860   -1.0610 C.3       1 NON         0.1119
      5 C5          3.6830    9.4300   -1.5330 C.3       1 NON         0.1130
      6 C6          2.6650    9.7520   -0.4460 C.3       1 NON         0.0730
      7 C7          3.1480   10.8250   -4.7080 C.3       1 NON         0.0395
      8 O1          4.2840   10.0750   -4.2600 O.3       1 NON        -0.3520
      9 O2          7.0630   10.5050   -2.0260 O.3       1 NON        -0.3841
     10 O3          7.0450    7.7960   -1.9030 O.3       1 NON        -0.3864
     11 O4          4.6840    7.3890   -0.5330 O.3       1 NON        -0.3865
     12 O5          4.1210   10.7250   -2.0210 O.3       1 NON        -0.3405
     13 O6          1.4550   10.1800   -1.1350 O.3       1 NON        -0.3924
     14 H1          5.2022   11.6247   -3.4268 H         1 NON         0.0937
     15 H2          6.6964    9.6828   -3.8947 H         1 NON         0.0671
     16 H3          5.3144    7.8725   -3.0270 H         1 NON         0.0648
     17 H4          5.4585    9.2920   -0.2987 H         1 NON         0.0647
     18 H5          3.1976    8.8459   -2.3287 H         1 NON         0.0647
     19 H6          3.0405   10.5583    0.2011 H         1 NON         0.0584
     20 H7          2.4614    8.8584    0.1623 H         1 NON         0.0584
     21 H8          2.7098   10.3350   -5.5900 H         1 NON         0.0525
     22 H9          3.4635   11.8447   -4.9739 H         1 NON         0.0525
     23 H10         2.3987   10.8709   -3.9040 H         1 NON         0.0525
     24 H11         7.2996   11.3520   -2.3853 H         1 NON         0.2101
     25 H12         7.6000    7.6751   -2.6645 H         1 NON         0.2100
     26 H13         4.1035    7.4646    0.2152 H         1 NON         0.2100
     27 H14         0.7861   10.3933   -0.4950 H         1 NON         0.2095
@<TRIPOS>BOND
     1    1    2 1  
     2    1    8 1  
     3    1   12 1  
     4    2    3 1  
     5    2    9 1  
     6    3    4 1  
     7    3   10 1  
     8    4    5 1  
     9    4   11 1  
    10    5    6 1  
    11    5   12 1  
    12    6   13 1  
    13    8    7 1  
    14    1   14 1  
    15    2   15 1  
    16    3   16 1  
    17    4   17 1  
    18    5   18 1  
    19    6   19 1  
    20    6   20 1  
    21    7   21 1  
    22    7   22 1  
    23    7   23 1  
    24    9   24 1  
    25   10   25 1  
    26   11   26 1  
    27   13   27 1  
@<TRIPOS>SUBSTRUCTURE
     1 NON         1

