### 
### Created by X-TOOL on Mon Sep 10 21:12:52 2018
### 

@<TRIPOS>MOLECULE
2bvd_ligand
   45    46     1     0     0
SMALL
GAST_HUCK


@<TRIPOS>ATOM
      1 O6         15.1490   34.6620   17.1450 O.3       1 ISX        -0.3945
      2 C5         19.2110   34.2660   14.6220 C.3       1 ISX        -0.0042
      3 N5         17.9550   33.9880   13.9340 N.4       1 ISX         0.2292
      4 C4         19.2900   33.6050   16.0020 C.3       1 ISX         0.1275
      5 O4         20.3500   34.2280   16.7430 O.3       1 ISX        -0.3376
      6 C3         18.0160   33.7770   16.8180 C.3       1 ISX         0.0961
      7 O3         18.1490   33.0370   18.0430 O.3       1 ISX        -0.3885
      8 C2         16.8190   33.3150   15.9790 C.3       1 ISX         0.0507
      9 C1         16.7150   34.1390   14.6970 C.3       1 ISX        -0.0261
     10 C1A        21.5980   33.5810   16.5500 C.3       1 ISX         0.1886
     11 C2A        22.6950   34.5650   16.9460 C.3       1 ISX         0.1341
     12 O2A        22.7420   35.6760   16.0370 O.3       1 ISX        -0.3841
     13 C3A        24.0590   33.8810   17.0400 C.3       1 ISX         0.1141
     14 O3A        25.0090   34.8100   17.5730 O.3       1 ISX        -0.3864
     15 C4A        23.9870   32.6220   17.9080 C.3       1 ISX         0.1119
     16 O4A        25.2500   31.9450   17.9170 O.3       1 ISX        -0.3865
     17 C5A        22.8810   31.7170   17.3480 C.3       1 ISX         0.1130
     18 C6         15.4840   33.3330   16.7320 C.3       1 ISX         0.0543
     19 C6A        22.7020   30.4370   18.1490 C.3       1 ISX         0.0730
     20 O6A        22.1780   30.7760   19.4390 O.3       1 ISX        -0.3924
     21 O5A        21.6580   32.4420   17.4130 O.3       1 ISX        -0.3405
     22 H1         15.8289   34.9949   17.7192 H         1 ISX         0.2094
     23 H2         19.3099   35.3543   14.7473 H         1 ISX         0.0840
     24 H3         20.0406   33.8911   14.0046 H         1 ISX         0.0840
     25 H4         17.9943   33.0348   13.6085 H         1 ISX         0.2014
     26 H5         17.9001   34.6110   13.1435 H         1 ISX         0.2014
     27 H6         19.4963   32.5322   15.8735 H         1 ISX         0.0677
     28 H7         17.8817   34.8408   17.0633 H         1 ISX         0.0626
     29 H8         17.3585   33.1379   18.5600 H         1 ISX         0.2099
     30 H9         17.0122   32.2710   15.6914 H         1 ISX         0.0401
     31 H10        15.8659   33.7813   14.0961 H         1 ISX         0.0818
     32 H11        16.5642   35.1987   14.9505 H         1 ISX         0.0818
     33 H12        21.7167   33.2726   15.5008 H         1 ISX         0.0938
     34 H13        22.4480   34.9566   17.9438 H         1 ISX         0.0671
     35 H14        22.9190   35.3584   15.1594 H         1 ISX         0.2101
     36 H15        24.3779   33.5877   16.0289 H         1 ISX         0.0648
     37 H16        24.7284   35.0874   18.4372 H         1 ISX         0.2100
     38 H17        23.7324   32.9067   18.9396 H         1 ISX         0.0647
     39 H18        25.9161   32.5244   18.2678 H         1 ISX         0.2100
     40 H19        23.1169   31.4606   16.3046 H         1 ISX         0.0647
     41 H20        14.6923   32.9509   16.0708 H         1 ISX         0.0562
     42 H21        15.5627   32.6888   17.6201 H         1 ISX         0.0562
     43 H22        23.6728   29.9327   18.2640 H         1 ISX         0.0584
     44 H23        22.0009   29.7685   17.6280 H         1 ISX         0.0584
     45 H24        22.0613   29.9839   19.9503 H         1 ISX         0.2095
@<TRIPOS>BOND
     1   18    1 1  
     2    3    2 1  
     3    4    2 1  
     4    9    3 1  
     5    4    5 1  
     6    6    4 1  
     7    5   10 1  
     8    6    7 1  
     9    8    6 1  
    10    8    9 1  
    11    8   18 1  
    12   10   11 1  
    13   10   21 1  
    14   11   12 1  
    15   11   13 1  
    16   13   14 1  
    17   13   15 1  
    18   15   16 1  
    19   15   17 1  
    20   17   19 1  
    21   17   21 1  
    22   19   20 1  
    23    1   22 1  
    24    2   23 1  
    25    2   24 1  
    26    3   25 1  
    27    3   26 1  
    28    4   27 1  
    29    6   28 1  
    30    7   29 1  
    31    8   30 1  
    32    9   31 1  
    33    9   32 1  
    34   10   33 1  
    35   11   34 1  
    36   12   35 1  
    37   13   36 1  
    38   14   37 1  
    39   15   38 1  
    40   16   39 1  
    41   17   40 1  
    42   18   41 1  
    43   18   42 1  
    44   19   43 1  
    45   19   44 1  
    46   20   45 1  
@<TRIPOS>SUBSTRUCTURE
     1 ISX         1

