### 
### Created by X-TOOL on Mon Sep 10 21:12:54 2018
### 

@<TRIPOS>MOLECULE
2bve_ligand
   55    56     1     0     0
SMALL
GAST_HUCK


@<TRIPOS>ATOM
      1 C1         17.8590   37.1130   32.5300 C.2       1 PH5         0.1043
      2 O1A        17.1840   36.3220   33.2010 O.co2     1 PH5        -0.5426
      3 O1B        17.3780   37.7710   31.5780 O.co2     1 PH5        -0.5426
      4 C2         19.3200   37.3530   32.9260 C.3       1 PH5         0.2222
      5 O2         19.3510   38.2810   33.9730 O.3       1 PH5        -0.3335
      6 C3         19.9580   36.0470   33.4070 C.3       1 PH5         0.0355
      7 C4         20.1770   35.0480   32.2650 C.3       1 PH5         0.0850
      8 O4         20.9260   33.9270   32.7230 O.3       1 PH5        -0.3893
      9 C5         20.8920   35.6910   31.0670 C.3       1 PH5         0.0964
     10 N5         20.9190   34.7010   29.9990 N.am      1 PH5        -0.2788
     11 C10        22.0150   34.4880   29.2770 C.2       1 PH5         0.1761
     12 O10        23.0560   35.1240   29.4070 O.2       1 PH5        -0.3971
     13 C11        21.9150   33.3980   28.2480 C.3       1 PH5         0.0344
     14 C12        22.6490   32.1830   28.7540 C.3       1 PH5        -0.0482
     15 C6         20.1050   36.9410   30.6540 C.3       1 PH5         0.1143
     16 O6         20.0020   37.8480   31.7750 O.3       1 PH5        -0.3383
     17 C7         20.7380   37.6900   29.4630 C.3       1 PH5         0.1114
     18 O7         22.0820   38.0230   29.7610 O.3       1 PH5        -0.3865
     19 C8         19.9620   38.9890   29.1780 C.3       1 PH5         0.1065
     20 O8         18.5670   38.7400   29.2430 O.3       1 PH5        -0.3869
     21 C9         20.3340   39.5340   27.7920 C.3       1 PH5         0.0727
     22 O9         19.7820   40.8290   27.6030 O.3       1 PH5        -0.3924
     23 CB         19.1610   39.6180   33.5930 C.3       1 PH5         0.0839
     24 CG         19.6840   40.6000   34.5920 C.ar      1 PH5        -0.0175
     25 CD1        18.8780   41.0380   35.6440 C.ar      1 PH5        -0.0581
     26 CD2        20.9740   41.0830   34.4870 C.ar      1 PH5        -0.0581
     27 CE1        19.3510   41.9490   36.5730 C.ar      1 PH5        -0.0685
     28 CE2        21.4660   41.9960   35.4080 C.ar      1 PH5        -0.0685
     29 CZ         20.6560   42.4350   36.4580 C.ar      1 PH5        -0.0687
     30 H1         19.2981   35.5868   34.1571 H         1 PH5         0.0336
     31 H2         20.9307   36.2772   33.8662 H         1 PH5         0.0336
     32 H3         19.1913   34.6951   31.9275 H         1 PH5         0.0618
     33 H4         21.7705   34.2214   33.0435 H         1 PH5         0.2099
     34 H5         21.9195   35.9745   31.3388 H         1 PH5         0.0608
     35 H6         20.0946   34.1695   29.8044 H         1 PH5         0.1856
     36 H7         22.3681   33.7373   27.3049 H         1 PH5         0.0500
     37 H8         20.8578   33.1466   28.0773 H         1 PH5         0.0500
     38 H9         22.5825   31.3774   28.0080 H         1 PH5         0.0254
     39 H10        22.1950   31.8470   29.6979 H         1 PH5         0.0254
     40 H11        23.7053   32.4377   28.9254 H         1 PH5         0.0254
     41 H12        19.0936   36.6235   30.3605 H         1 PH5         0.0646
     42 H13        20.7087   37.0437   28.5734 H         1 PH5         0.0647
     43 H14        22.5743   37.2281   29.9289 H         1 PH5         0.2100
     44 H15        20.2276   39.7380   29.9386 H         1 PH5         0.0643
     45 H16        18.3430   38.4237   30.1103 H         1 PH5         0.2100
     46 H17        19.9415   38.8567   27.0192 H         1 PH5         0.0584
     47 H18        21.4292   39.5913   27.7074 H         1 PH5         0.0584
     48 H19        18.8358   40.7820   27.6732 H         1 PH5         0.2095
     49 H20        18.0829   39.7936   33.4631 H         1 PH5         0.0724
     50 H21        19.6777   39.7853   32.6364 H         1 PH5         0.0724
     51 H22        17.8664   40.6592   35.7350 H         1 PH5         0.0557
     52 H23        21.6087   40.7448   33.6759 H         1 PH5         0.0557
     53 H24        18.7136   42.2829   37.3837 H         1 PH5         0.0599
     54 H25        22.4794   42.3690   35.3129 H         1 PH5         0.0599
     55 H26        21.0376   43.1485   37.1794 H         1 PH5         0.0559
@<TRIPOS>BOND
     1    1    2 ar 
     2    1    3 ar 
     3    1    4 1  
     4    4    5 1  
     5    4    6 1  
     6    4   16 1  
     7    5   23 1  
     8    6    7 1  
     9    7    8 1  
    10    7    9 1  
    11    9   10 1  
    12    9   15 1  
    13   10   11 am 
    14   11   12 2  
    15   11   13 1  
    16   13   14 1  
    17   15   16 1  
    18   15   17 1  
    19   17   18 1  
    20   17   19 1  
    21   19   20 1  
    22   19   21 1  
    23   21   22 1  
    24   23   24 1  
    25   24   25 ar 
    26   24   26 ar 
    27   25   27 ar 
    28   26   28 ar 
    29   27   29 ar 
    30   28   29 ar 
    31    6   30 1  
    32    6   31 1  
    33    7   32 1  
    34    8   33 1  
    35    9   34 1  
    36   10   35 1  
    37   13   36 1  
    38   13   37 1  
    39   14   38 1  
    40   14   39 1  
    41   14   40 1  
    42   15   41 1  
    43   17   42 1  
    44   18   43 1  
    45   19   44 1  
    46   20   45 1  
    47   21   46 1  
    48   21   47 1  
    49   22   48 1  
    50   23   49 1  
    51   23   50 1  
    52   25   51 1  
    53   26   52 1  
    54   27   53 1  
    55   28   54 1  
    56   29   55 1  
@<TRIPOS>SUBSTRUCTURE
     1 PH5         1

