### 
### Created by X-TOOL on Mon Sep 10 21:12:54 2018
### 

@<TRIPOS>MOLECULE
2bvr_ligand
   48    49     1     0     0
SMALL
GAST_HUCK


@<TRIPOS>ATOM
      1 C1         16.4540   -9.5390   12.2240 C.ar      1 4CP         0.0330
      2 C2         15.4440   -9.5710   13.2400 C.ar      1 4CP        -0.0538
      3 C3         15.4380  -10.6260   14.2120 C.ar      1 4CP        -0.0490
      4 C4         16.4460  -11.6510   14.1660 C.ar      1 4CP         0.0180
      5 C5         17.4560  -11.6110   13.1400 C.ar      1 4CP        -0.0490
      6 C6         17.4600  -10.5590   12.1720 C.ar      1 4CP        -0.0538
      7 CL7        16.4640   -8.2810   11.0660 Cl        1 4CP        -0.0771
      8 S8         16.4050  -12.9200   15.3700 S.3       1 4CP        -0.0797
      9 C9         16.6940  -14.5870   14.7000 C.3       1 4CP         0.0966
     10 C10        15.3890  -15.2740   14.3200 C.2       1 4CP         0.1908
     11 O11        15.4540  -16.4010   13.8540 O.2       1 4CP        -0.3958
     12 N12        14.1320  -14.6730   14.4830 N.am      1 4CP        -0.2605
     13 C13        12.8060  -15.2770   14.1350 C.3       1 4CP         0.1536
     14 C14        12.1130  -15.7490   15.4400 C.3       1 4CP         0.0613
     15 C15        12.8310  -16.8140   16.2830 C.ar      1 4CP         0.0426
     16 C16        13.4700  -16.4110   17.5100 C.ar      1 4CP         0.0162
     17 C17        14.1490  -17.3790   18.3290 C.ar      1 4CP         0.0451
     18 C18        14.2010  -18.7790   17.9370 C.ar      1 4CP         0.1556
     19 C19        13.5580  -19.1680   16.7020 C.ar      1 4CP         0.0451
     20 C20        12.8760  -18.1970   15.8820 C.ar      1 4CP         0.0162
     21 N21        14.8640  -19.8290   18.7020 N.pl3     1 4CP        -0.2414
     22 C22        15.5740  -19.7960   19.9360 C.cat     1 4CP         0.1642
     23 N23        15.7520  -18.7030   20.6300 N.pl3     1 4CP        -0.3494
     24 N24        16.0990  -20.9800   20.4200 N.pl3     1 4CP        -0.3494
     25 C25        11.9320  -14.2320   13.4280 C.2       1 4CP         0.2042
     26 O26        12.3020  -13.0670   13.3840 O.2       1 4CP        -0.3943
     27 N27        10.7260  -14.5680   12.8210 N.am      1 4CP        -0.2986
     28 H1         14.6847   -8.7982   13.2741 H         1 4CP         0.0606
     29 H2         14.6742  -10.6507   14.9808 H         1 4CP         0.0566
     30 H3         18.2168  -12.3823   13.1016 H         1 4CP         0.0566
     31 H4         18.2215  -10.5327   11.4010 H         1 4CP         0.0606
     32 H5         17.2078  -15.1931   15.4607 H         1 4CP         0.0642
     33 H6         17.3286  -14.5067   13.8051 H         1 4CP         0.0642
     34 H7         14.1199  -13.7508   14.8695 H         1 4CP         0.1887
     35 H8         12.9572  -16.1378   13.4670 H         1 4CP         0.0857
     36 H9         11.1305  -16.1576   15.1614 H         1 4CP         0.0705
     37 H10        11.9744  -14.8634   16.0776 H         1 4CP         0.0705
     38 H11        13.4388  -15.3720   17.8177 H         1 4CP         0.0861
     39 H12        14.6273  -17.0618   19.2486 H         1 4CP         0.0932
     40 H13        13.5889  -20.2049   16.3875 H         1 4CP         0.0932
     41 H14        12.3960  -18.5087   14.9614 H         1 4CP         0.0861
     42 H15        14.8087  -20.7633   18.2720 H         1 4CP         0.2425
     43 H16        16.2741  -18.7356   21.5173 H         1 4CP         0.1668
     44 H17        15.3702  -17.8090   20.2897 H         1 4CP         0.1668
     45 H18        15.9716  -21.8543   19.8906 H         1 4CP         0.1668
     46 H19        16.6175  -20.9877   21.3099 H         1 4CP         0.1668
     47 H20        10.1803  -13.8626   12.3686 H         1 4CP         0.1815
     48 H21        10.4049  -15.5149   12.8371 H         1 4CP         0.1815
@<TRIPOS>BOND
     1    1    2 ar 
     2    1    6 ar 
     3    1    7 1  
     4    2    3 ar 
     5    3    4 ar 
     6    4    5 ar 
     7    4    8 1  
     8    5    6 ar 
     9    8    9 1  
    10    9   10 1  
    11   10   11 2  
    12   10   12 am 
    13   12   13 1  
    14   13   14 1  
    15   13   25 1  
    16   14   15 1  
    17   15   16 ar 
    18   15   20 ar 
    19   16   17 ar 
    20   17   18 ar 
    21   18   19 ar 
    22   18   21 1  
    23   19   20 ar 
    24   21   22 ar 
    25   22   23 ar 
    26   22   24 ar 
    27   25   26 2  
    28   25   27 am 
    29    2   28 1  
    30    3   29 1  
    31    5   30 1  
    32    6   31 1  
    33    9   32 1  
    34    9   33 1  
    35   12   34 1  
    36   13   35 1  
    37   14   36 1  
    38   14   37 1  
    39   16   38 1  
    40   17   39 1  
    41   19   40 1  
    42   20   41 1  
    43   21   42 1  
    44   23   43 1  
    45   23   44 1  
    46   24   45 1  
    47   24   46 1  
    48   27   47 1  
    49   27   48 1  
@<TRIPOS>SUBSTRUCTURE
     1 4CP         1

