### 
### Created by X-TOOL on Mon Sep 10 21:12:54 2018
### 

@<TRIPOS>MOLECULE
2bvs_ligand
   69    70     1     0     0
SMALL
GAST_HUCK


@<TRIPOS>ATOM
      1 C1         16.6210   -9.7900   12.1740 C.ar      1 2CE         0.0330
      2 C2         15.7030   -9.7780   13.2410 C.ar      1 2CE        -0.0538
      3 C3         15.7260  -10.7940   14.2190 C.ar      1 2CE        -0.0490
      4 C4         16.6740  -11.8330   14.1330 C.ar      1 2CE         0.0180
      5 C5         17.5930  -11.8410   13.0550 C.ar      1 2CE        -0.0490
      6 C6         17.5680  -10.8250   12.0790 C.ar      1 2CE        -0.0538
      7 CL7        16.5840   -8.5420   10.9940 Cl        1 2CE        -0.0771
      8 S8         16.6710  -13.0820   15.3710 S.3       1 2CE        -0.0797
      9 C9         17.0080  -14.7470   14.7410 C.3       1 2CE         0.0966
     10 C10        15.7190  -15.4880   14.4200 C.2       1 2CE         0.1908
     11 O11        15.8130  -16.6290   14.0220 O.2       1 2CE        -0.3958
     12 N12        14.4450  -14.9320   14.5500 N.am      1 2CE        -0.2605
     13 C13        13.2030  -15.6690   14.2030 C.3       1 2CE         0.1538
     14 C14        12.4590  -16.0770   15.5000 C.3       1 2CE         0.0613
     15 C15        13.1660  -17.0480   16.4530 C.ar      1 2CE         0.0426
     16 C16        13.5740  -16.5970   17.7320 C.ar      1 2CE         0.0162
     17 C17        14.2310  -17.4810   18.6310 C.ar      1 2CE         0.0451
     18 C18        14.4930  -18.8370   18.2580 C.ar      1 2CE         0.1556
     19 C19        14.0800  -19.2740   16.9750 C.ar      1 2CE         0.0451
     20 C20        13.4230  -18.3900   16.0790 C.ar      1 2CE         0.0162
     21 N21        15.1560  -19.7960   19.1220 N.pl3     1 2CE        -0.2414
     22 C22        15.6570  -19.6190   20.4300 C.cat     1 2CE         0.1642
     23 N23        15.5710  -18.4810   21.0560 N.pl3     1 2CE        -0.3494
     24 N24        16.2610  -20.6960   21.0660 N.pl3     1 2CE        -0.3494
     25 C25        12.3400  -14.7430   13.3660 C.2       1 2CE         0.2068
     26 O26        12.6940  -13.5860   13.2130 O.2       1 2CE        -0.3941
     27 N27        11.2030  -15.1990   12.7330 N.am      1 2CE        -0.2825
     28 C28        10.3850  -14.3800   11.8430 C.3       1 2CE         0.0543
     29 C29         8.9150  -14.8090   11.8030 C.3       1 2CE         0.0678
     30 O30         8.4440  -15.2660   13.0710 O.3       1 2CE        -0.3755
     31 C31         8.6550  -14.3170   14.1150 C.3       1 2CE         0.0713
     32 C32         8.2290  -14.8570   15.4900 C.3       1 2CE         0.0740
     33 O33         7.0880  -14.1600   15.9790 O.3       1 2CE        -0.3572
     34 C34         7.4120  -13.3220   17.0840 C.3       1 2CE         0.1364
     35 C35         8.7960  -12.7250   16.9150 C.2       1 2CE         0.1996
     36 O36         9.3300  -12.7460   15.8240 O.2       1 2CE        -0.3947
     37 N37         9.4690  -12.1760   17.9950 N.am      1 2CE        -0.2990
     38 H1         14.9719   -8.9808   13.3117 H         1 2CE         0.0606
     39 H2         15.0145  -10.7756   15.0367 H         1 2CE         0.0566
     40 H3         18.3239  -12.6380   12.9801 H         1 2CE         0.0566
     41 H4         18.2760  -10.8412   11.2583 H         1 2CE         0.0606
     42 H5         17.5660  -15.3120   15.5022 H         1 2CE         0.0642
     43 H6         17.6133  -14.6682   13.8259 H         1 2CE         0.0642
     44 H7         14.3651  -13.9957   14.8920 H         1 2CE         0.1887
     45 H8         13.4508  -16.5714   13.6249 H         1 2CE         0.0857
     46 H9         11.5092  -16.5441   15.2006 H         1 2CE         0.0705
     47 H10        12.2527  -15.1554   16.0639 H         1 2CE         0.0705
     48 H11        13.3842  -15.5714   18.0274 H         1 2CE         0.0861
     49 H12        14.5362  -17.1242   19.6081 H         1 2CE         0.0932
     50 H13        14.2683  -20.2980   16.6732 H         1 2CE         0.0932
     51 H14        13.1158  -18.7445   15.1017 H         1 2CE         0.0861
     52 H15        15.2783  -20.7386   18.7251 H         1 2CE         0.2425
     53 H16        15.9477  -18.3883   22.0101 H         1 2CE         0.1668
     54 H17        15.1262  -17.6732   20.5972 H         1 2CE         0.1668
     55 H18        16.3365  -21.6028   20.5834 H         1 2CE         0.1668
     56 H19        16.6334  -20.5878   22.0202 H         1 2CE         0.1668
     57 H20        10.9224  -16.1454   12.8927 H         1 2CE         0.1852
     58 H21        10.7972  -14.4518   10.8257 H         1 2CE         0.0543
     59 H22        10.4345  -13.3360   12.1858 H         1 2CE         0.0543
     60 H23         8.8049  -15.6231   11.0716 H         1 2CE         0.0580
     61 H24         8.3050  -13.9491   11.4892 H         1 2CE         0.0580
     62 H25         8.0701  -13.4120   13.8938 H         1 2CE         0.0583
     63 H26         9.7246  -14.0627   14.1509 H         1 2CE         0.0583
     64 H27         9.0598  -14.7302   16.1997 H         1 2CE         0.0585
     65 H28         7.9856  -15.9257   15.3974 H         1 2CE         0.0585
     66 H29         7.3858  -13.9171   18.0087 H         1 2CE         0.0804
     67 H30         6.6736  -12.5093   17.1499 H         1 2CE         0.0804
     68 H31        10.3811  -11.7856   17.8698 H         1 2CE         0.1815
     69 H32         9.0425  -12.1702   18.8995 H         1 2CE         0.1815
@<TRIPOS>BOND
     1    1    2 ar 
     2    1    6 ar 
     3    1    7 1  
     4    2    3 ar 
     5    3    4 ar 
     6    4    5 ar 
     7    4    8 1  
     8    5    6 ar 
     9    8    9 1  
    10    9   10 1  
    11   10   11 2  
    12   10   12 am 
    13   12   13 1  
    14   13   14 1  
    15   13   25 1  
    16   14   15 1  
    17   15   16 ar 
    18   15   20 ar 
    19   16   17 ar 
    20   17   18 ar 
    21   18   19 ar 
    22   18   21 1  
    23   19   20 ar 
    24   21   22 ar 
    25   22   23 ar 
    26   22   24 ar 
    27   25   26 2  
    28   25   27 am 
    29   27   28 1  
    30   28   29 1  
    31   29   30 1  
    32   30   31 1  
    33   31   32 1  
    34   32   33 1  
    35   33   34 1  
    36   34   35 1  
    37   35   36 2  
    38   35   37 am 
    39    2   38 1  
    40    3   39 1  
    41    5   40 1  
    42    6   41 1  
    43    9   42 1  
    44    9   43 1  
    45   12   44 1  
    46   13   45 1  
    47   14   46 1  
    48   14   47 1  
    49   16   48 1  
    50   17   49 1  
    51   19   50 1  
    52   20   51 1  
    53   21   52 1  
    54   23   53 1  
    55   23   54 1  
    56   24   55 1  
    57   24   56 1  
    58   27   57 1  
    59   28   58 1  
    60   28   59 1  
    61   29   60 1  
    62   29   61 1  
    63   31   62 1  
    64   31   63 1  
    65   32   64 1  
    66   32   65 1  
    67   34   66 1  
    68   34   67 1  
    69   37   68 1  
    70   37   69 1  
@<TRIPOS>SUBSTRUCTURE
     1 2CE         1

