### 
### Created by X-TOOL on Mon Sep 10 21:12:54 2018
### 

@<TRIPOS>MOLECULE
2bvx_ligand
   51    54     1     0     0
SMALL
GAST_HUCK


@<TRIPOS>ATOM
      1 O1         12.2110  -13.5610   12.5930 O.2       1 5CB        -0.3904
      2 CL2        16.3500   -8.0570   10.9510 Cl        1 5CB        -0.0776
      3 CL3         8.4960  -13.0970   16.0310 Cl        1 5CB        -0.0299
      4 C4         17.7380  -10.4050   10.9660 C.ar      1 5CB        -0.0564
      5 C5         18.0880  -11.6720   11.5010 C.ar      1 5CB        -0.0496
      6 C6         16.7620   -9.5930   11.6210 C.ar      1 5CB         0.0304
      7 C7         17.4450  -12.0950   12.6870 C.ar      1 5CB         0.0350
      8 C8         16.1300  -10.0390   12.8150 C.ar      1 5CB        -0.0514
      9 C9         16.4810  -11.3070   13.3460 C.ar      1 5CB        -0.0158
     10 S10        17.6390  -13.4550   13.4980 S.3       1 5CB        -0.0525
     11 C11        16.5870  -13.1790   14.6790 C.2       1 5CB        -0.0086
     12 C12        15.9890  -11.9370   14.5010 C.2       1 5CB        -0.0221
     13 C13        14.9450  -11.3580   15.4510 C.3       1 5CB         0.0548
     14 N14        13.5620  -11.3830   14.9280 N.am      1 5CB        -0.2769
     15 C15        12.5080  -12.1950   15.3660 C.2       1 5CB         0.2089
     16 C16        11.1410  -12.0670   14.6980 C.3       1 5CB         0.1518
     17 C17         9.3190  -13.8690   14.7160 C.2       1 5CB         0.1556
     18 N18        10.5300  -13.3270   14.1710 N.am      1 5CB        -0.1835
     19 C19         8.7900  -15.0170   14.2080 C.2       1 5CB         0.0024
     20 C20        11.1770  -13.9970   13.0820 C.2       1 5CB         0.2745
     21 N21         9.4640  -15.7290   13.0640 N.2       1 5CB        -0.3103
     22 C22        10.5850  -15.2600   12.5330 C.2       1 5CB         0.1888
     23 N23        11.2080  -15.9200   11.4710 N.pl3     1 5CB        -0.2937
     24 C24        10.5940  -16.7930   10.4460 C.3       1 5CB         0.0410
     25 C25         9.9540  -15.9430    9.3260 C.3       1 5CB         0.0169
     26 C26         7.4590  -16.1360    9.9780 C.ar      1 5CB        -0.0323
     27 C27         8.5650  -15.3530    9.5920 C.ar      1 5CB         0.0300
     28 C28         6.2140  -15.5110   10.2000 C.ar      1 5CB        -0.0489
     29 N29         8.3880  -13.9620    9.4390 N.ar      1 5CB        -0.2980
     30 C30         6.0480  -14.1170   10.0430 C.ar      1 5CB        -0.0410
     31 C31         7.1440  -13.3350    9.6590 C.ar      1 5CB         0.0028
     32 O32        12.6670  -12.9970   16.2660 O.2       1 5CB        -0.3938
     33 H1         18.2127  -10.0523   10.0575 H         1 5CB         0.0575
     34 H2         18.8273  -12.2977   11.0142 H         1 5CB         0.0570
     35 H3         15.3917   -9.4196   13.3114 H         1 5CB         0.0584
     36 H4         16.3735  -13.8637   15.4984 H         1 5CB         0.0631
     37 H5         15.2141  -10.3125   15.6619 H         1 5CB         0.0637
     38 H6         14.9701  -11.9387   16.3849 H         1 5CB         0.0637
     39 H7         13.3569  -10.7515   14.1803 H         1 5CB         0.1873
     40 H8         11.2464  -11.3694   13.8541 H         1 5CB         0.0868
     41 H9         10.4463  -11.6442   15.4387 H         1 5CB         0.0868
     42 H10         7.8729  -15.4232   14.6321 H         1 5CB         0.0435
     43 H11        12.2255  -15.7811   11.3912 H         1 5CB         0.1848
     44 H12         9.8183  -17.4145   10.9171 H         1 5CB         0.0549
     45 H13        11.3690  -17.4411   10.0108 H         1 5CB         0.0549
     46 H14         9.8758  -16.5800    8.4327 H         1 5CB         0.0476
     47 H15        10.6344  -15.1037    9.1195 H         1 5CB         0.0476
     48 H16         7.5638  -17.2077   10.1031 H         1 5CB         0.0651
     49 H17         5.3645  -16.1148   10.4981 H         1 5CB         0.0719
     50 H18         5.0820  -13.6575   10.2180 H         1 5CB         0.0652
     51 H19         7.0380  -12.2636    9.5327 H         1 5CB         0.0803
@<TRIPOS>BOND
     1   20    1 2  
     2    6    2 1  
     3   17    3 1  
     4    5    4 ar 
     5    6    4 ar 
     6    7    5 ar 
     7    8    6 ar 
     8    9    7 ar 
     9   10    7 1  
    10    9    8 ar 
    11   12    9 1  
    12   11   10 1  
    13   12   11 2  
    14   13   12 1  
    15   14   13 1  
    16   15   14 am 
    17   16   15 1  
    18   15   32 2  
    19   18   16 1  
    20   18   17 1  
    21   17   19 2  
    22   18   20 am 
    23   19   21 1  
    24   20   22 1  
    25   21   22 2  
    26   22   23 1  
    27   23   24 1  
    28   24   25 1  
    29   25   27 1  
    30   27   26 ar 
    31   26   28 ar 
    32   27   29 ar 
    33   28   30 ar 
    34   29   31 ar 
    35   30   31 ar 
    36    4   33 1  
    37    5   34 1  
    38    8   35 1  
    39   11   36 1  
    40   13   37 1  
    41   13   38 1  
    42   14   39 1  
    43   16   40 1  
    44   16   41 1  
    45   19   42 1  
    46   23   43 1  
    47   24   44 1  
    48   24   45 1  
    49   25   46 1  
    50   25   47 1  
    51   26   48 1  
    52   28   49 1  
    53   30   50 1  
    54   31   51 1  
@<TRIPOS>SUBSTRUCTURE
     1 5CB         1

