### 
### Created by X-TOOL on Mon Sep 10 21:12:53 2018
### 

@<TRIPOS>MOLECULE
2bw7_ligand
   45    48     1     0     0
SMALL
GAST_HUCK


@<TRIPOS>ATOM
      1 C1          2.5700   -4.3650    5.9530 C.ar      1 ECS        -0.0460
      2 C10         2.1620   -3.0840    6.5380 C.ar      1 ECS        -0.0569
      3 C11         0.2660   -2.7630    4.7600 C.3       1 ECS        -0.0422
      4 C12        -0.6560   -1.7860    3.9710 C.3       1 ECS        -0.0433
      5 C13        -1.5100   -0.9160    4.9340 C.3       1 ECS        -0.0027
      6 C14        -0.5110   -0.1550    5.9370 C.3       1 ECS        -0.0285
      7 C15        -1.4770    0.8210    6.6110 C.3       1 ECS        -0.0469
      8 C16        -2.2240    1.4360    5.3710 C.3       1 ECS        -0.0261
      9 C17        -2.2240    0.3080    4.2830 C.3       1 ECS         0.0609
     10 C18        -2.6170   -1.8270    5.6410 C.3       1 ECS        -0.0569
     11 C2          3.3940   -5.2880    6.6780 C.ar      1 ECS         0.1026
     12 C3          3.8460   -4.9590    8.0040 C.ar      1 ECS         0.1026
     13 C4          3.4730   -3.7120    8.6220 C.ar      1 ECS        -0.0462
     14 C5          2.6380   -2.7560    7.9160 C.ar      1 ECS        -0.0600
     15 C6          2.2490   -1.4200    8.6070 C.3       1 ECS        -0.0287
     16 C7          1.3410   -0.4470    7.7660 C.3       1 ECS        -0.0410
     17 C8          0.3860   -1.1730    6.7820 C.3       1 ECS        -0.0262
     18 C9          1.2570   -2.0570    5.7620 C.3       1 ECS        -0.0140
     19 O17        -3.5880    0.0820    3.8290 O.3       1 ECS        -0.3912
     20 O3          4.6340   -5.8490    8.6820 O.3       1 ECS        -0.3430
     21 O2          3.7470   -6.4780    6.0940 O.3       1 ECS        -0.3430
     22 H1          2.2420   -4.6197    4.9517 H         1 ECS         0.0434
     23 H2          0.8613   -3.3361    4.0340 H         1 ECS         0.0286
     24 H3         -0.3725   -3.4502    5.3346 H         1 ECS         0.0286
     25 H4         -1.3277   -2.3700    3.3247 H         1 ECS         0.0273
     26 H5         -0.0318   -1.1264    3.3503 H         1 ECS         0.0273
     27 H6          0.2045    0.4435    5.3540 H         1 ECS         0.0311
     28 H7         -0.9364    1.5937    7.1773 H         1 ECS         0.0269
     29 H8         -2.1750    0.2967    7.2802 H         1 ECS         0.0269
     30 H9         -1.6913    2.3253    5.0031 H         1 ECS         0.0290
     31 H10        -3.2545    1.7110    5.6401 H         1 ECS         0.0290
     32 H11        -1.6319    0.6312    3.4141 H         1 ECS         0.0599
     33 H12        -2.1323   -2.6975    6.1071 H         1 ECS         0.0236
     34 H13        -3.3436   -2.1704    4.8899 H         1 ECS         0.0236
     35 H14        -3.1368   -1.2400    6.4125 H         1 ECS         0.0236
     36 H15         3.8190   -3.4851    9.6239 H         1 ECS         0.0434
     37 H16         3.1782   -0.8850    8.8526 H         1 ECS         0.0390
     38 H17         1.7108   -1.6650    9.5345 H         1 ECS         0.0390
     39 H18         1.9940    0.2213    7.1855 H         1 ECS         0.0288
     40 H19         0.7331    0.1487    8.4628 H         1 ECS         0.0288
     41 H20        -0.2786   -1.8319    7.3601 H         1 ECS         0.0326
     42 H21         1.9171   -1.3897    5.1884 H         1 ECS         0.0427
     43 H22        -4.1257   -0.1844    4.5655 H         1 ECS         0.2098
     44 H23         4.7860   -6.6135    8.1388 H         1 ECS         0.2419
     45 H24         3.3644   -6.5293    5.2260 H         1 ECS         0.2419
@<TRIPOS>BOND
     1    2    1 ar 
     2    1   11 ar 
     3    2   14 ar 
     4   18    2 1  
     5    3    4 1  
     6    3   18 1  
     7    4    5 1  
     8    5    6 1  
     9    5    9 1  
    10    5   10 1  
    11    6    7 1  
    12    6   17 1  
    13    7    8 1  
    14    8    9 1  
    15    9   19 1  
    16   11   12 ar 
    17   11   21 1  
    18   12   13 ar 
    19   12   20 1  
    20   13   14 ar 
    21   14   15 1  
    22   15   16 1  
    23   16   17 1  
    24   17   18 1  
    25    1   22 1  
    26    3   23 1  
    27    3   24 1  
    28    4   25 1  
    29    4   26 1  
    30    6   27 1  
    31    7   28 1  
    32    7   29 1  
    33    8   30 1  
    34    8   31 1  
    35    9   32 1  
    36   10   33 1  
    37   10   34 1  
    38   10   35 1  
    39   13   36 1  
    40   15   37 1  
    41   15   38 1  
    42   16   39 1  
    43   16   40 1  
    44   17   41 1  
    45   18   42 1  
    46   19   43 1  
    47   20   44 1  
    48   21   45 1  
@<TRIPOS>SUBSTRUCTURE
     1 ECS         1

