### 
### Created by X-TOOL on Mon Sep 10 21:12:54 2018
### 

@<TRIPOS>MOLECULE
2bxt_ligand
   53    56     1     0     0
SMALL
GAST_HUCK


@<TRIPOS>ATOM
      1 O1         12.1720  -13.1210   13.0270 O.2       1 C2D        -0.3905
      2 CL2        16.4230   -8.3340   11.0040 Cl        1 C2D        -0.0776
      3 CL3         8.1380  -12.6370   15.9790 Cl        1 C2D        -0.0301
      4 C4         17.7400  -10.7330   11.4800 C.ar      1 C2D        -0.0564
      5 C5         17.9060  -11.9740   12.1890 C.ar      1 C2D        -0.0496
      6 C6         16.6740   -9.8360   11.8280 C.ar      1 C2D         0.0304
      7 C7         16.9910  -12.3030   13.2350 C.ar      1 C2D         0.0351
      8 C8         15.7810  -10.1800   12.8680 C.ar      1 C2D        -0.0512
      9 C9         15.9530  -11.4110   13.5560 C.ar      1 C2D        -0.0128
     10 S10        16.8950  -13.6270   14.2040 S.3       1 C2D        -0.0524
     11 C11        15.6100  -13.1120   15.0260 C.2       1 C2D        -0.0056
     12 C12        15.1540  -11.8700   14.5810 C.2       1 C2D         0.0002
     13 C13        13.9720  -11.0570   15.0700 C.3       1 C2D        -0.0094
     14 N14        13.2670  -11.6180   16.2400 N.4       1 C2D         0.2380
     15 C15        11.9170  -12.2650   16.1350 C.3       1 C2D        -0.0038
     16 C16        10.9320  -11.7610   15.0440 C.3       1 C2D         0.1028
     17 C17         9.0200  -13.4190   14.7130 C.2       1 C2D         0.1537
     18 N18        10.3150  -12.9200   14.3470 N.am      1 C2D        -0.1973
     19 C19         8.4900  -14.4800   14.0630 C.2       1 C2D         0.0022
     20 C20        11.0600  -13.5400   13.3280 C.2       1 C2D         0.2725
     21 N21         9.2660  -15.1550   12.9640 N.2       1 C2D        -0.3103
     22 C22        10.4700  -14.7210   12.6170 C.2       1 C2D         0.1887
     23 N23        11.1940  -15.3270   11.6050 N.pl3     1 C2D        -0.2937
     24 C24        10.8610  -16.4970   10.7460 C.3       1 C2D         0.0410
     25 C25        10.1250  -16.0740    9.4490 C.3       1 C2D         0.0169
     26 C26         7.7090  -16.1510   10.2640 C.ar      1 C2D        -0.0323
     27 C27         8.7970  -15.4260    9.7580 C.ar      1 C2D         0.0300
     28 C28         6.5040  -15.4720   10.5520 C.ar      1 C2D        -0.0489
     29 N29         8.6570  -14.0420    9.5630 N.ar      1 C2D        -0.2980
     30 C30         6.3750  -14.0910   10.3410 C.ar      1 C2D        -0.0410
     31 C31         7.4620  -13.3670    9.8370 C.ar      1 C2D         0.0028
     32 H1         18.4231  -10.4739   10.6792 H         1 C2D         0.0575
     33 H2         18.7141  -12.6496   11.9328 H         1 C2D         0.0570
     34 H3         14.9722   -9.5107   13.1382 H         1 C2D         0.0584
     35 H4         15.1480  -13.6705   15.8388 H         1 C2D         0.0632
     36 H5         13.2499  -10.9748   14.2443 H         1 C2D         0.0932
     37 H6         14.3361  -10.0547   15.3399 H         1 C2D         0.0932
     38 H7         13.1631  -10.8586   16.8946 H         1 C2D         0.2025
     39 H8         13.8819  -12.3154   16.6292 H         1 C2D         0.2025
     40 H9         11.4185  -12.1342   17.1068 H         1 C2D         0.0842
     41 H10        12.0846  -13.3363   15.9501 H         1 C2D         0.0842
     42 H11        11.4790  -11.1455   14.3146 H         1 C2D         0.0676
     43 H12        10.1432  -11.1566   15.5156 H         1 C2D         0.0676
     44 H13         7.5011  -14.8462   14.3349 H         1 C2D         0.0435
     45 H14        12.1117  -14.8995   11.4153 H         1 C2D         0.1848
     46 H15        10.2144  -17.1821   11.3139 H         1 C2D         0.0549
     47 H16        11.7928  -17.0139   10.4731 H         1 C2D         0.0549
     48 H17         9.9527  -16.9653    8.8279 H         1 C2D         0.0476
     49 H18        10.7530  -15.3587    8.8977 H         1 C2D         0.0476
     50 H19         7.7912  -17.2187   10.4321 H         1 C2D         0.0651
     51 H20         5.6614  -16.0298   10.9443 H         1 C2D         0.0719
     52 H21         5.4412  -13.5887   10.5664 H         1 C2D         0.0652
     53 H22         7.3794  -12.3004    9.6617 H         1 C2D         0.0803
@<TRIPOS>BOND
     1   20    1 2  
     2    6    2 1  
     3   17    3 1  
     4    5    4 ar 
     5    6    4 ar 
     6    7    5 ar 
     7    8    6 ar 
     8    9    7 ar 
     9   10    7 1  
    10    9    8 ar 
    11   12    9 1  
    12   11   10 1  
    13   12   11 2  
    14   13   12 1  
    15   14   13 1  
    16   15   14 1  
    17   16   15 1  
    18   18   16 1  
    19   18   17 1  
    20   17   19 2  
    21   18   20 am 
    22   19   21 1  
    23   20   22 1  
    24   21   22 2  
    25   22   23 1  
    26   23   24 1  
    27   24   25 1  
    28   25   27 1  
    29   27   26 ar 
    30   26   28 ar 
    31   27   29 ar 
    32   28   30 ar 
    33   29   31 ar 
    34   30   31 ar 
    35    4   32 1  
    36    5   33 1  
    37    8   34 1  
    38   11   35 1  
    39   13   36 1  
    40   13   37 1  
    41   14   38 1  
    42   14   39 1  
    43   15   40 1  
    44   15   41 1  
    45   16   42 1  
    46   16   43 1  
    47   19   44 1  
    48   23   45 1  
    49   24   46 1  
    50   24   47 1  
    51   25   48 1  
    52   25   49 1  
    53   26   50 1  
    54   28   51 1  
    55   30   52 1  
    56   31   53 1  
@<TRIPOS>SUBSTRUCTURE
     1 C2D         1

