### 
### Created by X-TOOL on Mon Sep 10 21:12:55 2018
### 

@<TRIPOS>MOLECULE
2bxu_ligand
   54    56     1     0     0
SMALL
GAST_HUCK


@<TRIPOS>ATOM
      1 C1          6.4780  -15.3240   10.8540 C.ar      1 C1D         0.0418
      2 N2          7.6680  -16.0430   10.5970 N.ar      1 C1D        -0.2660
      3 C3          8.7030  -15.5060    9.8000 C.ar      1 C1D         0.0907
      4 C4          8.5330  -14.2160    9.2490 C.ar      1 C1D        -0.0072
      5 C5          7.3440  -13.4990    9.5060 C.ar      1 C1D        -0.0135
      6 C6          6.3160  -14.0430   10.3050 C.ar      1 C1D        -0.0062
      7 C11         9.9860  -16.3030    9.5440 C.3       1 C1D         0.2702
      8 C12        10.6690  -16.7460   10.8490 C.3       1 C1D         0.0741
      9 F13         9.6920  -17.4090    8.8240 F         1 C1D        -0.2416
     10 F14        10.8780  -15.5660    8.8430 F         1 C1D        -0.2416
     11 N15        11.1960  -15.5770   11.6040 N.pl3     1 C1D        -0.2974
     12 C18        10.5960  -14.9140   12.6740 C.2       1 C1D         0.1880
     13 C19        11.2160  -13.6760   13.2560 C.2       1 C1D         0.2725
     14 N20        10.5820  -13.0140   14.3540 N.am      1 C1D        -0.1973
     15 C21         9.3540  -13.5530   14.8690 C.2       1 C1D         0.1537
     16 C22         8.8080  -14.6710   14.3300 C.2       1 C1D         0.0022
     17 N23         9.4720  -15.3660   13.1850 N.2       1 C1D        -0.3103
     18 C24        11.2060  -11.7750   14.9370 C.3       1 C1D         0.1028
     19 C25        12.4770  -12.0280   15.8010 C.3       1 C1D        -0.0036
     20 N28        13.5890  -12.7190   15.0930 N.4       1 C1D         0.2394
     21 C29        14.7690  -11.8430   15.2220 C.3       1 C1D        -0.0021
     22 C30        15.6930  -11.6910   14.0010 C.ar      1 C1D         0.0163
     23 C33        15.8260  -10.3840   13.5000 C.ar      1 C1D        -0.0542
     24 C34        16.6330  -10.0880   12.3890 C.ar      1 C1D        -0.0304
     25 C2         16.3490  -14.1870   13.7940 C.3       1 C1D        -0.0215
     26 C35        17.3300  -11.1220   11.7540 C.ar      1 C1D         0.0925
     27 C37        16.4060  -12.7420   13.3540 C.ar      1 C1D         0.0168
     28 O42        12.2550  -13.2530   12.7870 O.2       1 C1D        -0.3905
     29 N6         18.1420  -10.8360   10.6330 N.pl3     1 C1D        -0.3275
     30 CL43        8.5210  -12.8130   16.1890 Cl        1 C1D        -0.0301
     31 N29        17.2100  -12.4330   12.2410 N.ar      1 C1D        -0.2941
     32 H1          5.6983  -15.7583   11.4693 H         1 C1D         0.0932
     33 H2          9.3106  -13.7794    8.6327 H         1 C1D         0.0954
     34 H3          7.2183  -12.5099    9.0806 H         1 C1D         0.0811
     35 H4          5.4106  -13.4772   10.4927 H         1 C1D         0.0937
     36 H5         11.5024  -17.4217   10.6064 H         1 C1D         0.0496
     37 H6          9.9367  -17.2769   11.4750 H         1 C1D         0.0496
     38 H7         12.1114  -15.2151   11.3006 H         1 C1D         0.1839
     39 H8          7.8775  -15.0662   14.7348 H         1 C1D         0.0435
     40 H9         10.4553  -11.2791   15.5699 H         1 C1D         0.0676
     41 H10        11.4837  -11.1087   14.1070 H         1 C1D         0.0676
     42 H11        12.1862  -12.6447   16.6642 H         1 C1D         0.0842
     43 H12        12.8493  -11.0550   16.1542 H         1 C1D         0.0842
     44 H13        13.3561  -12.8500   14.1211 H         1 C1D         0.2026
     45 H14        13.7708  -13.6145   15.5186 H         1 C1D         0.2026
     46 H15        15.3801  -12.2368   16.0475 H         1 C1D         0.0953
     47 H16        14.4039  -10.8387   15.4828 H         1 C1D         0.0953
     48 H17        15.2883   -9.5785   13.9870 H         1 C1D         0.0621
     49 H18        16.7150   -9.0694   12.0274 H         1 C1D         0.0532
     50 H19        16.9843  -14.7964   13.1345 H         1 C1D         0.0403
     51 H20        15.3110  -14.5467   13.7380 H         1 C1D         0.0403
     52 H21        16.7103  -14.2695   14.8297 H         1 C1D         0.0403
     53 H22        18.6566  -11.5944   10.1629 H         1 C1D         0.1743
     54 H23        18.2191   -9.8692   10.2862 H         1 C1D         0.1743
@<TRIPOS>BOND
     1    1    2 ar 
     2    1    6 ar 
     3    2    3 ar 
     4    3    4 ar 
     5    3    7 1  
     6    4    5 ar 
     7    5    6 ar 
     8    7    8 1  
     9    7    9 1  
    10    7   10 1  
    11    8   11 1  
    12   11   12 1  
    13   12   13 1  
    14   12   17 2  
    15   13   14 am 
    16   13   28 2  
    17   14   15 1  
    18   14   18 1  
    19   15   16 2  
    20   15   30 1  
    21   16   17 1  
    22   18   19 1  
    23   19   20 1  
    24   20   21 1  
    25   21   22 1  
    26   22   23 ar 
    27   22   27 ar 
    28   23   24 ar 
    29   24   26 ar 
    30   27   25 1  
    31   26   29 1  
    32   26   31 ar 
    33   27   31 ar 
    34    1   32 1  
    35    4   33 1  
    36    5   34 1  
    37    6   35 1  
    38    8   36 1  
    39    8   37 1  
    40   11   38 1  
    41   16   39 1  
    42   18   40 1  
    43   18   41 1  
    44   19   42 1  
    45   19   43 1  
    46   20   44 1  
    47   20   45 1  
    48   21   46 1  
    49   21   47 1  
    50   23   48 1  
    51   24   49 1  
    52   25   50 1  
    53   25   51 1  
    54   25   52 1  
    55   29   53 1  
    56   29   54 1  
@<TRIPOS>SUBSTRUCTURE
     1 C1D         1

