### 
### Created by X-TOOL on Mon Sep 10 21:12:52 2018
### 

@<TRIPOS>MOLECULE
2byh_ligand
   40    42     1     0     0
SMALL
GAST_HUCK


@<TRIPOS>ATOM
      1 O6          5.6560   -2.4880    5.5440 O.2       1 2D7        -0.3868
      2 C17         4.7820   -2.4710    6.3870 C.2       1 2D7         0.1182
      3 C18         3.9620   -3.6990    6.6910 C.3       1 2D7         0.0082
      4 C14         4.5170   -1.2360    7.1850 C.ar      1 2D7         0.0162
      5 C15         3.5280   -1.2370    8.1690 C.ar      1 2D7        -0.0565
      6 C16         3.2570   -0.0870    8.9010 C.ar      1 2D7        -0.0348
      7 C13         5.2270   -0.0490    6.9600 C.ar      1 2D7        -0.0565
      8 C12         4.9460    1.0980    7.6980 C.ar      1 2D7        -0.0348
      9 C11         3.9150    1.1240    8.6270 C.ar      1 2D7         0.0712
     10 N3          3.7560    2.2280    9.3850 N.am      1 2D7        -0.2351
     11 C10         2.8530    2.5610   10.3120 C.2       1 2D7         0.2102
     12 O5          1.8700    1.8370   10.5490 O.2       1 2D7        -0.3897
     13 C8          3.0700    3.7810   11.1680 C.2       1 2D7         0.0706
     14 C9          2.1150    4.6050   11.7260 C.2       1 2D7         0.0104
     15 N1          2.7820    5.4630   12.5070 N.2       1 2D7        -0.2205
     16 N2          4.0790    5.2510   12.5160 N.pl3     1 2D7        -0.2144
     17 C7          4.3160    4.1910   11.7700 C.2       1 2D7         0.1019
     18 C5          5.7090    3.6640   11.5610 C.ar      1 2D7         0.0394
     19 C6          5.9130    2.3050   11.3540 C.ar      1 2D7        -0.0486
     20 C1          7.1660    1.8100   11.1080 C.ar      1 2D7         0.0609
     21 CL1         7.4110    0.0810   10.8860 Cl        1 2D7        -0.0867
     22 C2          8.2720    2.6270   11.0890 C.ar      1 2D7         0.0981
     23 O2          9.4540    2.0890   10.8230 O.3       1 2D7        -0.3320
     24 C3          8.1150    3.9700   11.3270 C.ar      1 2D7         0.0007
     25 C4          6.8420    4.5040   11.5730 C.ar      1 2D7         0.0979
     26 O4          6.7700    5.8180   11.8090 O.3       1 2D7        -0.3302
     27 H1          3.2322   -3.4663    7.4804 H         1 2D7         0.0446
     28 H2          4.6252   -4.5077    7.0316 H         1 2D7         0.0446
     29 H3          3.4302   -4.0189    5.7828 H         1 2D7         0.0446
     30 H4          2.9658   -2.1430    8.3644 H         1 2D7         0.0632
     31 H5          2.5239   -0.1250    9.6986 H         1 2D7         0.0518
     32 H6          6.0030   -0.0234    6.2036 H         1 2D7         0.0632
     33 H7          5.5445    1.9885    7.5439 H         1 2D7         0.0518
     34 H8          4.4465    2.9328    9.2221 H         1 2D7         0.2268
     35 H9          1.0388    4.5655   11.5642 H         1 2D7         0.0687
     36 H10         4.7832    5.8122   13.0160 H         1 2D7         0.2547
     37 H11         5.0680    1.6269   11.3877 H         1 2D7         0.0598
     38 H12        10.1205    2.7656   10.8436 H         1 2D7         0.2502
     39 H13         8.9810    4.6220   11.3247 H         1 2D7         0.0473
     40 H14         7.2889    6.0297   12.5761 H         1 2D7         0.2511
@<TRIPOS>BOND
     1    1    2 2  
     2    2    3 1  
     3    2    4 1  
     4    4    5 ar 
     5    4    7 ar 
     6    5    6 ar 
     7    6    9 ar 
     8    7    8 ar 
     9    8    9 ar 
    10    9   10 1  
    11   10   11 am 
    12   11   12 2  
    13   11   13 1  
    14   13   14 1  
    15   13   17 2  
    16   14   15 2  
    17   15   16 1  
    18   16   17 1  
    19   17   18 1  
    20   18   19 ar 
    21   18   25 ar 
    22   19   20 ar 
    23   20   21 1  
    24   20   22 ar 
    25   22   23 1  
    26   22   24 ar 
    27   24   25 ar 
    28   25   26 1  
    29    3   27 1  
    30    3   28 1  
    31    3   29 1  
    32    5   30 1  
    33    6   31 1  
    34    7   32 1  
    35    8   33 1  
    36   10   34 1  
    37   14   35 1  
    38   16   36 1  
    39   19   37 1  
    40   23   38 1  
    41   24   39 1  
    42   26   40 1  
@<TRIPOS>SUBSTRUCTURE
     1 2D7         1

