### 
### Created by X-TOOL on Mon Sep 10 21:12:52 2018
### 

@<TRIPOS>MOLECULE
2byi_ligand
   43    45     1     0     0
SMALL
GAST_HUCK


@<TRIPOS>ATOM
      1 CL1         7.1870    0.0500   10.6090 Cl        1 2DD        -0.0867
      2 C1          7.1110    1.7580   11.0330 C.ar      1 2DD         0.0609
      3 C2          8.2860    2.4960   11.1630 C.ar      1 2DD         0.0980
      4 C3          8.2220    3.8490   11.4890 C.ar      1 2DD         0.0007
      5 C4          6.9850    4.4360   11.7660 C.ar      1 2DD         0.0979
      6 O4          6.9230    5.7370   12.0680 O.3       1 2DD        -0.3302
      7 O2          9.4590    1.9270   10.8740 O.3       1 2DD        -0.3320
      8 C6          5.8810    2.3500   11.2770 C.ar      1 2DD        -0.0486
      9 C5          5.8150    3.6980   11.5950 C.ar      1 2DD         0.0394
     10 C7          4.4760    4.3290   11.8120 C.2       1 2DD         0.1013
     11 N2          4.0990    5.0280   12.9010 N.pl3     1 2DD        -0.2144
     12 N1          2.8570    5.4250   12.7540 N.2       1 2DD        -0.2205
     13 C9          2.3880    5.0120   11.5620 C.2       1 2DD         0.0098
     14 C8          3.3940    4.3070   10.9270 C.2       1 2DD         0.0641
     15 C10         3.2970    3.6750    9.5450 C.2       1 2DD         0.1824
     16 O5          2.1920    3.3060    9.1230 O.2       1 2DD        -0.4022
     17 N3          4.3790    3.5110    8.7710 N.am      1 2DD        -0.2804
     18 C17         4.2630    3.0920    7.4800 C.3       1 2DD         0.0631
     19 C11         4.3370    1.5790    7.2910 C.ar      1 2DD        -0.0211
     20 C12         4.1710    0.6890    8.3510 C.ar      1 2DD        -0.0566
     21 C13         4.2250   -0.6930    8.1180 C.ar      1 2DD        -0.0419
     22 C16         4.4900    1.0790    5.9990 C.ar      1 2DD        -0.0566
     23 C15         4.5410   -0.2900    5.7650 C.ar      1 2DD        -0.0419
     24 C14         4.3920   -1.1810    6.8190 C.ar      1 2DD         0.1009
     25 S1          4.4500   -2.9140    6.5140 S.o2      1 2DD         0.0628
     26 O6          5.6020   -3.2320    5.7310 O.2       1 2DD        -0.1514
     27 O7          3.2710   -3.3040    5.7710 O.2       1 2DD        -0.1514
     28 N4          4.4500   -3.6960    7.8910 N.am      1 2DD        -0.2617
     29 H1          9.1277    4.4434   11.5275 H         1 2DD         0.0473
     30 H2          7.4406    5.9052   12.8466 H         1 2DD         0.2511
     31 H3          9.8432    2.3608   10.1212 H         1 2DD         0.2502
     32 H4          4.9732    1.7603   11.2193 H         1 2DD         0.0598
     33 H5          4.6928    5.2204   13.7203 H         1 2DD         0.2547
     34 H6          1.3908    5.2001   11.1668 H         1 2DD         0.0687
     35 H7          5.2861    3.6993    9.1474 H         1 2DD         0.1859
     36 H8          5.0754    3.5502    6.8968 H         1 2DD         0.0682
     37 H9          3.2933    3.4385    7.0932 H         1 2DD         0.0682
     38 H10         4.0005    1.0644    9.3535 H         1 2DD         0.0558
     39 H11         4.1369   -1.3847    8.9479 H         1 2DD         0.0619
     40 H12         4.5703    1.7673    5.1654 H         1 2DD         0.0558
     41 H13         4.6972   -0.6622    4.7589 H         1 2DD         0.0619
     42 H14         4.4803   -4.6955    7.8984 H         1 2DD         0.1634
     43 H15         4.4197   -3.1903    8.7532 H         1 2DD         0.1634
@<TRIPOS>BOND
     1    1    2 1  
     2    2    3 ar 
     3    2    8 ar 
     4    3    4 ar 
     5    3    7 1  
     6    4    5 ar 
     7    5    6 1  
     8    5    9 ar 
     9    8    9 ar 
    10    9   10 1  
    11   10   11 1  
    12   10   14 2  
    13   11   12 1  
    14   12   13 2  
    15   13   14 1  
    16   14   15 1  
    17   15   16 2  
    18   15   17 am 
    19   17   18 1  
    20   18   19 1  
    21   19   20 ar 
    22   19   22 ar 
    23   20   21 ar 
    24   21   24 ar 
    25   22   23 ar 
    26   23   24 ar 
    27   24   25 1  
    28   25   26 2  
    29   25   27 2  
    30   25   28 am 
    31    4   29 1  
    32    6   30 1  
    33    7   31 1  
    34    8   32 1  
    35   11   33 1  
    36   13   34 1  
    37   17   35 1  
    38   18   36 1  
    39   18   37 1  
    40   20   38 1  
    41   21   39 1  
    42   22   40 1  
    43   23   41 1  
    44   28   42 1  
    45   28   43 1  
@<TRIPOS>SUBSTRUCTURE
     1 2DD         1

