### 
### Created by X-TOOL on Mon Sep 10 21:12:52 2018
### 

@<TRIPOS>MOLECULE
2byr_ligand
  100   107     1     0     0
SMALL
GAST_HUCK


@<TRIPOS>ATOM
      1 O8          1.5840   -0.6630  -13.7100 O.2       1 MLK        -0.3744
      2 C8          0.7370   -1.4040  -13.2060 C.2       1 MLK         0.2359
      3 C9         -0.6400   -0.9300  -12.7930 C.3       1 MLK         0.0686
      4 C10        -1.2670   -2.1550  -12.1550 C.3       1 MLK         0.0744
      5 C12        -1.5590   -1.9620  -10.6730 C.3       1 MLK        -0.0422
      6 C11        -0.2420   -3.2260  -12.3790 C.2       1 MLK         0.2384
      7 O11        -0.4140   -4.3850  -12.0290 O.2       1 MLK        -0.3741
      8 N7          0.8570   -2.7130  -12.9310 N.am      1 MLK        -0.1277
      9 C6          1.8590   -3.5330  -13.4650 C.ar      1 MLK         0.1179
     10 C5          1.6090   -4.3790  -14.5430 C.ar      1 MLK        -0.0292
     11 C4          2.6230   -5.1890  -15.0590 C.ar      1 MLK        -0.0688
     12 C3          3.9060   -5.1730  -14.5040 C.ar      1 MLK        -0.0695
     13 C2          4.2030   -4.3400  -13.4160 C.ar      1 MLK        -0.0521
     14 C1          3.2140   -3.5150  -12.8720 C.ar      1 MLK         0.0872
     15 C13         3.5180   -2.6160  -11.7180 C.2       1 MLK         0.2546
     16 O13         2.6420   -2.1510  -11.0110 O.2       1 MLK        -0.3652
     17 O14         4.8980   -2.2900  -11.4480 O.3       1 MLK        -0.2791
     18 C15         5.2610   -1.3970  -10.4120 C.3       1 MLK         0.0861
     19 C16         6.7590   -1.1620  -10.5160 C.3       1 MLK         0.0443
     20 C21         7.4080   -2.5490  -10.3590 C.3       1 MLK        -0.0374
     21 C20         8.2990   -2.8860  -11.5330 C.3       1 MLK        -0.0251
     22 C19         9.3140   -1.7620  -11.7750 C.3       1 MLK         0.0698
     23 O19        10.2520   -1.6750  -10.7080 O.3       1 MLK        -0.3790
     24 C22        11.1090   -2.8000  -10.5380 C.3       1 MLK         0.0368
     25 C18         8.6330   -0.3930  -12.0050 C.3       1 MLK         0.0517
     26 C17         7.1110   -0.4720  -11.8490 C.3       1 MLK         0.0147
     27 C26         8.8590    0.7140  -10.9780 C.3       1 MLK         0.0226
     28 N23         8.6310    0.2010   -9.5920 N.4       1 MLK         0.2403
     29 C24         8.9990    1.1820   -8.5410 C.3       1 MLK        -0.0344
     30 C25        10.5030    1.3300   -8.3990 C.3       1 MLK        -0.0245
     31 C23         7.2500   -0.2820   -9.3590 C.3       1 MLK        -0.0229
     32 C30         9.1290    0.1090  -13.3880 C.3       1 MLK        -0.0191
     33 C33        10.6630    0.2380  -13.4670 C.3       1 MLK        -0.0414
     34 C34        10.9540    1.6530  -13.9540 C.3       1 MLK         0.0123
     35 C35        11.0500    2.6480  -12.8030 C.3       1 MLK         0.0662
     36 O35        11.9670    3.7050  -13.1060 O.3       1 MLK        -0.3793
     37 C37        13.3480    3.3480  -12.9130 C.3       1 MLK         0.0368
     38 C36         9.7040    3.2830  -12.4110 C.3       1 MLK         0.0061
     39 C31         8.6480    1.4790  -13.8880 C.3       1 MLK         0.0212
     40 C38         9.7620    1.9270  -14.8300 C.3       1 MLK         0.0693
     41 O38         9.7240    3.2820  -15.2950 O.3       1 MLK        -0.3790
     42 C39         8.6740    3.4930  -16.2410 C.3       1 MLK         0.0368
     43 C32         8.4300    2.4780  -12.7400 C.3       1 MLK         0.1102
     44 O32         7.4410    3.4120  -13.1300 O.3       1 MLK        -0.3850
     45 C27         7.8750    1.7800  -11.4960 C.3       1 MLK         0.1641
     46 O27         7.5510    2.8070  -10.5520 O.3       1 MLK        -0.3780
     47 C28         6.6240    0.9730  -11.8330 C.3       1 MLK         0.0994
     48 O28         6.0390    1.3400  -13.0720 O.3       1 MLK        -0.3763
     49 C29         4.6950    0.8990  -13.2120 C.3       1 MLK         0.0369
     50 H1         -1.2209   -0.6030  -13.6680 H         1 MLK         0.0541
     51 H2         -0.5698   -0.1040  -12.0700 H         1 MLK         0.0541
     52 H3         -2.2066   -2.4102  -12.6669 H         1 MLK         0.0571
     53 H4         -2.0108   -2.8786  -10.2659 H         1 MLK         0.0259
     54 H5         -2.2558   -1.1209  -10.5431 H         1 MLK         0.0259
     55 H6         -0.6214   -1.7472  -10.1394 H         1 MLK         0.0259
     56 H7          0.6196   -4.4089  -14.9849 H         1 MLK         0.0534
     57 H8          2.4124   -5.8386  -15.9009 H         1 MLK         0.0619
     58 H9          4.6784   -5.8106  -14.9187 H         1 MLK         0.0515
     59 H10         5.2021   -4.3356  -12.9955 H         1 MLK         0.0636
     60 H11         5.0169   -1.8372   -9.4339 H         1 MLK         0.0618
     61 H12         4.7224   -0.4453  -10.5305 H         1 MLK         0.0618
     62 H13         6.6147   -3.3073  -10.2845 H         1 MLK         0.0274
     63 H14         8.0115   -2.5581   -9.4394 H         1 MLK         0.0274
     64 H15         7.6795   -3.0146  -12.4328 H         1 MLK         0.0291
     65 H16         8.8379   -3.8215  -11.3221 H         1 MLK         0.0291
     66 H17         9.8697   -2.0134  -12.6904 H         1 MLK         0.0603
     67 H18        11.7860   -2.6203   -9.6898 H         1 MLK         0.0524
     68 H19        11.7002   -2.9522  -11.4531 H         1 MLK         0.0524
     69 H20        10.5027   -3.6962  -10.3398 H         1 MLK         0.0524
     70 H21         6.6612   -1.0248  -12.6869 H         1 MLK         0.0343
     71 H22         9.8878    1.0997  -11.0304 H         1 MLK         0.0888
     72 H23         9.2420   -0.5930   -9.4812 H         1 MLK         0.2038
     73 H24         8.5836    0.8447   -7.5799 H         1 MLK         0.0812
     74 H25         8.5696    2.1602   -8.8030 H         1 MLK         0.0812
     75 H26        10.7264    2.0646   -7.6113 H         1 MLK         0.0281
     76 H27        10.9293    1.6741   -9.3529 H         1 MLK         0.0281
     77 H28        10.9433    0.3586   -8.1298 H         1 MLK         0.0281
     78 H29         7.2290   -0.8695   -8.4293 H         1 MLK         0.0821
     79 H30         6.5802    0.5849   -9.2601 H         1 MLK         0.0821
     80 H31         8.7984   -0.6467  -14.1158 H         1 MLK         0.0313
     81 H32        11.0704   -0.4988  -14.1750 H         1 MLK         0.0273
     82 H33        11.1094    0.0785  -12.4744 H         1 MLK         0.0273
     83 H34        11.8874    1.6856  -14.5350 H         1 MLK         0.0351
     84 H35        11.4303    2.0988  -11.9291 H         1 MLK         0.0600
     85 H36        13.9874    4.2069  -13.1649 H         1 MLK         0.0524
     86 H37        13.6017    2.4986  -13.5643 H         1 MLK         0.0524
     87 H38        13.5104    3.0657  -11.8623 H         1 MLK         0.0524
     88 H39         9.6292    4.2500  -12.9299 H         1 MLK         0.0319
     89 H40         9.7197    3.4504  -11.3239 H         1 MLK         0.0319
     90 H41         7.7030    1.3704  -14.4405 H         1 MLK         0.0358
     91 H42         9.7767    1.2791  -15.7188 H         1 MLK         0.0603
     92 H43         8.6822    4.5427  -16.5698 H         1 MLK         0.0524
     93 H44         7.7060    3.2633  -15.7717 H         1 MLK         0.0524
     94 H45         8.8255    2.8355  -17.1098 H         1 MLK         0.0524
     95 H46         6.6302    2.9535  -13.3168 H         1 MLK         0.2103
     96 H47         6.9021    3.3892  -10.9294 H         1 MLK         0.2106
     97 H48         5.8707    1.1086  -11.0430 H         1 MLK         0.0631
     98 H49         4.3051    1.2161  -14.1905 H         1 MLK         0.0524
     99 H50         4.0799    1.3378  -12.4126 H         1 MLK         0.0524
    100 H51         4.6598   -0.1982  -13.1414 H         1 MLK         0.0524
@<TRIPOS>BOND
     1    1    2 2  
     2    2    3 1  
     3    2    8 am 
     4    3    4 1  
     5    4    5 1  
     6    4    6 1  
     7    6    7 2  
     8    6    8 am 
     9    8    9 1  
    10    9   10 ar 
    11    9   14 ar 
    12   10   11 ar 
    13   11   12 ar 
    14   12   13 ar 
    15   13   14 ar 
    16   14   15 1  
    17   15   16 2  
    18   15   17 1  
    19   17   18 1  
    20   18   19 1  
    21   19   20 1  
    22   19   26 1  
    23   19   31 1  
    24   20   21 1  
    25   21   22 1  
    26   22   23 1  
    27   22   25 1  
    28   23   24 1  
    29   25   26 1  
    30   25   27 1  
    31   25   32 1  
    32   26   47 1  
    33   27   28 1  
    34   27   45 1  
    35   28   29 1  
    36   28   31 1  
    37   29   30 1  
    38   32   33 1  
    39   32   39 1  
    40   33   34 1  
    41   34   35 1  
    42   34   40 1  
    43   35   36 1  
    44   35   38 1  
    45   36   37 1  
    46   38   43 1  
    47   39   40 1  
    48   39   43 1  
    49   40   41 1  
    50   41   42 1  
    51   43   44 1  
    52   43   45 1  
    53   45   46 1  
    54   45   47 1  
    55   47   48 1  
    56   48   49 1  
    57    3   50 1  
    58    3   51 1  
    59    4   52 1  
    60    5   53 1  
    61    5   54 1  
    62    5   55 1  
    63   10   56 1  
    64   11   57 1  
    65   12   58 1  
    66   13   59 1  
    67   18   60 1  
    68   18   61 1  
    69   20   62 1  
    70   20   63 1  
    71   21   64 1  
    72   21   65 1  
    73   22   66 1  
    74   24   67 1  
    75   24   68 1  
    76   24   69 1  
    77   26   70 1  
    78   27   71 1  
    79   28   72 1  
    80   29   73 1  
    81   29   74 1  
    82   30   75 1  
    83   30   76 1  
    84   30   77 1  
    85   31   78 1  
    86   31   79 1  
    87   32   80 1  
    88   33   81 1  
    89   33   82 1  
    90   34   83 1  
    91   35   84 1  
    92   37   85 1  
    93   37   86 1  
    94   37   87 1  
    95   38   88 1  
    96   38   89 1  
    97   39   90 1  
    98   40   91 1  
    99   42   92 1  
   100   42   93 1  
   101   42   94 1  
   102   44   95 1  
   103   46   96 1  
   104   47   97 1  
   105   49   98 1  
   106   49   99 1  
   107   49  100 1  
@<TRIPOS>SUBSTRUCTURE
     1 MLK         1

