### 
### Created by X-TOOL on Mon Sep 10 21:12:53 2018
### 

@<TRIPOS>MOLECULE
2bys_ligand
   53    55     1     0     0
SMALL
GAST_HUCK


@<TRIPOS>ATOM
      1 O1         -5.8150   22.5840    6.1490 O.2       1 LOB        -0.3782
      2 C3         -5.8710   23.8000    6.0880 C.2       1 LOB         0.1383
      3 C1         -5.2930   24.6120    7.2290 C.ar      1 LOB         0.0328
      4 C2         -4.7700   23.9560    8.3510 C.ar      1 LOB        -0.0430
      5 C5         -4.2310   24.6830    9.4140 C.ar      1 LOB        -0.0559
      6 C6         -4.2090   26.0760    9.3730 C.ar      1 LOB        -0.0572
      7 C7         -4.7210   26.7400    8.2640 C.ar      1 LOB        -0.0559
      8 C4         -5.2540   26.0090    7.2010 C.ar      1 LOB        -0.0430
      9 C8         -6.4790   24.4100    4.8370 C.3       1 LOB         0.0655
     10 C9         -7.9930   24.2070    4.6420 C.3       1 LOB        -0.0056
     11 C12        -8.4510   22.7860    4.9150 C.3       1 LOB        -0.0073
     12 C15        -9.9070   22.6750    4.5290 C.3       1 LOB        -0.0427
     13 C13       -10.0290   22.7100    3.0170 C.3       1 LOB        -0.0092
     14 C11        -9.2690   23.8540    2.3380 C.3       1 LOB        -0.0165
     15 N1         -8.3160   24.5730    3.2340 N.4       1 LOB         0.2392
     16 C22        -8.3140   26.0140    3.0040 C.3       1 LOB        -0.0424
     17 C14        -8.4900   23.3200    1.1190 C.3       1 LOB         0.0263
     18 C16        -8.0770   24.4360    0.1550 C.3       1 LOB         0.0941
     19 O2         -6.7000   24.7440    0.3740 O.3       1 LOB        -0.3791
     20 C17        -8.2640   24.1150   -1.2910 C.ar      1 LOB        -0.0146
     21 C18        -7.8610   22.8970   -1.8380 C.ar      1 LOB        -0.0579
     22 C20        -8.0450   22.6310   -3.1970 C.ar      1 LOB        -0.0685
     23 C21        -8.6260   23.5850   -4.0310 C.ar      1 LOB        -0.0687
     24 C10        -9.0150   24.8120   -3.4920 C.ar      1 LOB        -0.0685
     25 C19        -8.8300   25.0750   -2.1340 C.ar      1 LOB        -0.0579
     26 H1         -4.7840   22.8729    8.3942 H         1 LOB         0.0672
     27 H2         -3.8279   24.1619   10.2749 H         1 LOB         0.0630
     28 H3         -3.7948   26.6389   10.2016 H         1 LOB         0.0655
     29 H4         -4.7063   27.8232    8.2249 H         1 LOB         0.0630
     30 H5         -5.6451   26.5346    6.3374 H         1 LOB         0.0672
     31 H6         -5.9678   23.9702    3.9679 H         1 LOB         0.0541
     32 H7         -6.2876   25.4928    4.8658 H         1 LOB         0.0541
     33 H8         -8.5294   24.8797    5.3274 H         1 LOB         0.0877
     34 H9         -8.3309   22.5553    5.9838 H         1 LOB         0.0321
     35 H10        -7.8532   22.0813    4.3183 H         1 LOB         0.0321
     36 H11       -10.4672   23.5166    4.9624 H         1 LOB         0.0269
     37 H12       -10.3166   21.7274    4.9088 H         1 LOB         0.0269
     38 H13       -11.0945   22.8079    2.7617 H         1 LOB         0.0320
     39 H14        -9.6427   21.7595    2.6203 H         1 LOB         0.0320
     40 H15       -10.0140   24.5829    1.9865 H         1 LOB         0.0854
     41 H16        -7.4500   24.2972    2.7980 H         1 LOB         0.2038
     42 H17        -7.5976   26.4934    3.6874 H         1 LOB         0.0778
     43 H18        -9.3213   26.4161    3.1877 H         1 LOB         0.0778
     44 H19        -8.0215   26.2189    1.9636 H         1 LOB         0.0778
     45 H20        -9.1270   22.6044    0.5786 H         1 LOB         0.0367
     46 H21        -7.5840   22.8080    1.4754 H         1 LOB         0.0367
     47 H22        -8.6856   25.3228    0.3857 H         1 LOB         0.0759
     48 H23        -6.1742   23.9689    0.2153 H         1 LOB         0.2130
     49 H24        -7.4005   22.1494   -1.2024 H         1 LOB         0.0557
     50 H25        -7.7339   21.6764   -3.6057 H         1 LOB         0.0599
     51 H26        -8.7737   23.3765   -5.0845 H         1 LOB         0.0559
     52 H27        -9.4629   25.5643   -4.1311 H         1 LOB         0.0599
     53 H28        -9.1288   26.0349   -1.7285 H         1 LOB         0.0557
@<TRIPOS>BOND
     1    1    2 2  
     2    2    3 1  
     3    2    9 1  
     4    3    4 ar 
     5    3    8 ar 
     6    4    5 ar 
     7    5    6 ar 
     8    6    7 ar 
     9    7    8 ar 
    10    9   10 1  
    11   10   11 1  
    12   10   15 1  
    13   11   12 1  
    14   12   13 1  
    15   13   14 1  
    16   14   15 1  
    17   14   17 1  
    18   15   16 1  
    19   17   18 1  
    20   18   19 1  
    21   18   20 1  
    22   20   21 ar 
    23   20   25 ar 
    24   21   22 ar 
    25   22   23 ar 
    26   23   24 ar 
    27   24   25 ar 
    28    4   26 1  
    29    5   27 1  
    30    6   28 1  
    31    7   29 1  
    32    8   30 1  
    33    9   31 1  
    34    9   32 1  
    35   10   33 1  
    36   11   34 1  
    37   11   35 1  
    38   12   36 1  
    39   12   37 1  
    40   13   38 1  
    41   13   39 1  
    42   14   40 1  
    43   15   41 1  
    44   16   42 1  
    45   16   43 1  
    46   16   44 1  
    47   17   45 1  
    48   17   46 1  
    49   18   47 1  
    50   19   48 1  
    51   21   49 1  
    52   22   50 1  
    53   23   51 1  
    54   24   52 1  
    55   25   53 1  
@<TRIPOS>SUBSTRUCTURE
     1 LOB         1

