### 
### Created by X-TOOL on Mon Sep 10 21:12:52 2018
### 

@<TRIPOS>MOLECULE
2bz5_ligand
   45    48     1     0     0
SMALL
GAST_HUCK


@<TRIPOS>ATOM
      1 CL22       30.7790    5.1300   47.6290 Cl        1 AB4        -0.0684
      2 C10        32.0620    6.0630   48.3490 C.ar      1 AB4         0.0675
      3 C19        32.8640    6.7680   47.4550 C.ar      1 AB4        -0.0454
      4 C23        33.9220    7.5180   47.9410 C.ar      1 AB4        -0.0472
      5 C20        34.2150    7.5640   49.3040 C.ar      1 AB4         0.0424
      6 CL24       35.5620    8.5580   49.8150 Cl        1 AB4        -0.0704
      7 C7         33.4020    6.8580   50.1980 C.ar      1 AB4        -0.0202
      8 C2         32.3100    6.1140   49.7320 C.ar      1 AB4         0.1280
      9 S1         31.3230    5.1880   50.9100 S.o2      1 AB4         0.0878
     10 O8         31.9200    5.4920   52.2090 O.2       1 AB4        -0.1450
     11 O9         31.4600    3.7320   50.5550 O.2       1 AB4        -0.1450
     12 N5         29.7300    5.6210   50.7910 N.am      1 AB4        -0.1941
     13 C14        29.2480    6.7910   51.2040 C.ar      1 AB4         0.0495
     14 C12        29.2220    7.8510   50.2890 C.ar      1 AB4        -0.0495
     15 C21        28.7640    6.9670   52.5150 C.ar      1 AB4        -0.0547
     16 C18        28.2670    8.2300   52.9010 C.ar      1 AB4        -0.0483
     17 C11        28.2580    9.3110   51.9760 C.ar      1 AB4         0.0776
     18 O25        27.7650   10.5350   52.3710 O.3       1 AB4        -0.3424
     19 C3         28.7230    9.1260   50.6550 C.ar      1 AB4        -0.0086
     20 C4         28.7470   10.1810   49.6850 C.ar      1 AB4         0.0107
     21 C6         29.9620   10.7290   49.1790 C.ar      1 AB4        -0.0211
     22 C27        31.2260   10.2620   49.5750 C.ar      1 AB4        -0.0594
     23 C29        32.4330   10.8150   49.1200 C.ar      1 AB4        -0.0653
     24 C30        32.3990   11.8410   48.1580 C.ar      1 AB4        -0.0649
     25 C28        31.1460   12.3460   47.7200 C.ar      1 AB4        -0.0587
     26 C15        29.9440   11.7860   48.2280 C.ar      1 AB4        -0.0252
     27 C17        28.7110   12.2600   47.7590 C.ar      1 AB4        -0.0577
     28 C16        27.5090   11.7170   48.2540 C.ar      1 AB4        -0.0279
     29 C13        27.5330   10.7090   49.2060 C.ar      1 AB4         0.0967
     30 O26        26.3400   10.2560   49.6440 O.3       1 AB4        -0.3309
     31 H1         32.6624    6.7301   46.3906 H         1 AB4         0.0624
     32 H2         34.5356    8.0814   47.2473 H         1 AB4         0.0623
     33 H3         33.6189    6.8870   51.2597 H         1 AB4         0.0643
     34 H4         29.0928    4.9657   50.3854 H         1 AB4         0.2118
     35 H5         29.5905    7.6932   49.2818 H         1 AB4         0.0428
     36 H6         28.7732    6.1425   53.2187 H         1 AB4         0.0447
     37 H7         27.8904    8.3773   53.9068 H         1 AB4         0.0497
     38 H8         26.8561   10.4401   52.6311 H         1 AB4         0.2438
     39 H9         31.2717    9.4304   50.2688 H         1 AB4         0.0594
     40 H10        33.3804   10.4558   49.5053 H         1 AB4         0.0604
     41 H11        33.3214   12.2427   47.7545 H         1 AB4         0.0588
     42 H12        31.1073   13.1559   47.0006 H         1 AB4         0.0614
     43 H13        28.6823   13.0464   47.0135 H         1 AB4         0.0605
     44 H14        26.5590   12.0896   47.8883 H         1 AB4         0.0583
     45 H15        25.8565   10.9718   50.0394 H         1 AB4         0.2497
@<TRIPOS>BOND
     1    1    2 1  
     2    2    3 ar 
     3    2    8 ar 
     4    3    4 ar 
     5    4    5 ar 
     6    5    6 1  
     7    5    7 ar 
     8    7    8 ar 
     9    8    9 1  
    10    9   10 2  
    11    9   11 2  
    12    9   12 am 
    13   12   13 1  
    14   13   14 ar 
    15   13   15 ar 
    16   14   19 ar 
    17   15   16 ar 
    18   16   17 ar 
    19   17   18 1  
    20   17   19 ar 
    21   19   20 1  
    22   20   21 ar 
    23   20   29 ar 
    24   21   22 ar 
    25   21   26 ar 
    26   22   23 ar 
    27   23   24 ar 
    28   24   25 ar 
    29   25   26 ar 
    30   26   27 ar 
    31   27   28 ar 
    32   28   29 ar 
    33   29   30 1  
    34    3   31 1  
    35    4   32 1  
    36    7   33 1  
    37   12   34 1  
    38   14   35 1  
    39   15   36 1  
    40   16   37 1  
    41   18   38 1  
    42   22   39 1  
    43   23   40 1  
    44   24   41 1  
    45   25   42 1  
    46   27   43 1  
    47   28   44 1  
    48   30   45 1  
@<TRIPOS>SUBSTRUCTURE
     1 AB4         1

