### 
### Created by X-TOOL on Mon Sep 10 21:12:53 2018
### 

@<TRIPOS>MOLECULE
2bz6_ligand
   54    56     1     0     0
SMALL
GAST_HUCK


@<TRIPOS>ATOM
      1 F30         9.1080   41.7380   30.0750 F         1 346        -0.2050
      2 C12         9.9720   42.3270   30.9280 C.ar      1 346         0.1513
      3 C13        10.3470   43.6140   30.6520 C.ar      1 346         0.1104
      4 O25         9.7850   44.1710   29.5170 O.3       1 346        -0.3166
      5 C26        10.2010   45.4940   29.1980 C.3       1 346         0.1053
      6 C27         9.3320   45.9850   28.0480 C.3       1 346         0.0033
      7 C29        10.1360   45.5400   26.8400 C.3       1 346         0.0506
      8 O28        11.5180   45.5570   27.2220 O.3       1 346        -0.3767
      9 C31        11.6330   45.4950   28.6530 C.3       1 346         0.0781
     10 C8         11.2410   44.2760   31.4940 C.ar      1 346        -0.0133
     11 C9         11.7300   43.6010   32.6210 C.ar      1 346         0.0726
     12 O23        12.6290   44.3560   33.3710 O.3       1 346        -0.3251
     13 C24        13.1870   43.6600   34.4920 C.3       1 346         0.0664
     14 C30        14.1920   44.5270   35.2280 C.3       1 346        -0.0373
     15 C10        11.3480   42.2770   32.8800 C.ar      1 346        -0.0407
     16 C11        10.4570   41.6220   32.0350 C.ar      1 346         0.0108
     17 C14        10.0230   40.2110   32.3020 C.3       1 346         0.1174
     18 C15         9.2560   40.1290   33.5870 C.2       1 346         0.0704
     19 O2          8.1130   40.6840   33.5850 O.co2     1 346        -0.5643
     20 O1          9.7280   39.5130   34.6070 O.co2     1 346        -0.5643
     21 N3         11.2180   39.3530   32.3730 N.pl3     1 346        -0.2979
     22 C1         11.9230   38.9250   31.2570 C.ar      1 346         0.0410
     23 C2         11.4990   39.1680   29.9520 C.ar      1 346        -0.0443
     24 C3         12.2610   38.6980   28.9200 C.ar      1 346        -0.0685
     25 C4         13.4510   37.9890   29.1110 C.ar      1 346         0.0122
     26 C7         14.2220   37.5220   27.9870 C.cat     1 346         0.2283
     27 N1         13.7920   37.6600   26.7030 N.pl3     1 346        -0.2736
     28 N2         15.3790   36.8700   28.1410 N.pl3     1 346        -0.2736
     29 C5         13.8740   37.7410   30.4220 C.ar      1 346        -0.0685
     30 C6         13.1180   38.2170   31.4570 C.ar      1 346        -0.0443
     31 H1         10.1148   46.1479   30.0783 H         1 346         0.0672
     32 H2          9.2167   47.0787   28.0716 H         1 346         0.0317
     33 H3          8.3395   45.5111   28.0652 H         1 346         0.0317
     34 H4          9.9684   46.2305   26.0003 H         1 346         0.0561
     35 H5          9.8393   44.5232   26.5434 H         1 346         0.0561
     36 H6         12.1560   44.5753   28.9538 H         1 346         0.0589
     37 H7         12.1835   46.3698   29.0294 H         1 346         0.0589
     38 H8         11.5514   45.2925   31.2808 H         1 346         0.0401
     39 H9         13.6911   42.7498   34.1352 H         1 346         0.0609
     40 H10        12.3769   43.3837   35.1829 H         1 346         0.0609
     41 H11        14.6029   43.9679   36.0816 H         1 346         0.0255
     42 H12        13.6937   45.4377   35.5918 H         1 346         0.0255
     43 H13        15.0079   44.8037   34.5441 H         1 346         0.0255
     44 H14        11.7493   41.7601   33.7442 H         1 346         0.0384
     45 H15         9.3783   39.8692   31.4789 H         1 346         0.0867
     46 H16        11.5485   39.0543   33.3017 H         1 346         0.1803
     47 H17        10.5847   39.7178   29.7599 H         1 346         0.0515
     48 H18        11.9274   38.8834   27.9054 H         1 346         0.0582
     49 H19        14.3719   37.3131   25.9256 H         1 346         0.3179
     50 H20        12.8867   38.1113   26.5087 H         1 346         0.3179
     51 H21        15.7678   36.7267   29.0840 H         1 346         0.3179
     52 H22        15.8815   36.5110   27.3167 H         1 346         0.3179
     53 H23        14.7832   37.1825   30.6130 H         1 346         0.0582
     54 H24        13.4550   38.0405   32.4721 H         1 346         0.0515
@<TRIPOS>BOND
     1    1    2 1  
     2    2    3 ar 
     3    2   16 ar 
     4    3    4 1  
     5    3   10 ar 
     6    4    5 1  
     7    5    6 1  
     8    5    9 1  
     9    6    7 1  
    10    7    8 1  
    11    8    9 1  
    12   10   11 ar 
    13   11   12 1  
    14   11   15 ar 
    15   12   13 1  
    16   13   14 1  
    17   15   16 ar 
    18   16   17 1  
    19   17   18 1  
    20   17   21 1  
    21   18   19 ar 
    22   18   20 ar 
    23   21   22 1  
    24   22   23 ar 
    25   22   30 ar 
    26   23   24 ar 
    27   24   25 ar 
    28   25   26 1  
    29   25   29 ar 
    30   26   27 ar 
    31   26   28 ar 
    32   29   30 ar 
    33    5   31 1  
    34    6   32 1  
    35    6   33 1  
    36    7   34 1  
    37    7   35 1  
    38    9   36 1  
    39    9   37 1  
    40   10   38 1  
    41   13   39 1  
    42   13   40 1  
    43   14   41 1  
    44   14   42 1  
    45   14   43 1  
    46   15   44 1  
    47   17   45 1  
    48   21   46 1  
    49   23   47 1  
    50   24   48 1  
    51   27   49 1  
    52   27   50 1  
    53   28   51 1  
    54   28   52 1  
    55   29   53 1  
    56   30   54 1  
@<TRIPOS>SUBSTRUCTURE
     1 346         1

