### 
### Created by X-TOOL on Mon Sep 10 21:12:46 2018
### 

@<TRIPOS>MOLECULE
2bza_ligand
   18    18     1     0     0
SMALL
GAST_HUCK


@<TRIPOS>ATOM
      1 N         -11.3430   28.6040   41.9220 N.4       1 ABN         0.2308
      2 C         -12.4460   27.8940   42.1280 C.3       1 ABN        -0.0016
      3 C1        -12.8990   27.9750   43.4640 C.ar      1 ABN         0.0013
      4 C2        -14.1950   28.4740   43.7970 C.ar      1 ABN        -0.0553
      5 C3        -14.6620   28.5600   45.1270 C.ar      1 ABN        -0.0684
      6 C4        -13.8430   28.1460   46.1740 C.ar      1 ABN        -0.0687
      7 C5        -12.5590   27.6490   45.8890 C.ar      1 ABN        -0.0684
      8 C6        -12.0900   27.5620   44.5580 C.ar      1 ABN        -0.0553
      9 H1        -11.0608   28.5144   40.9585 H         1 ABN         0.2008
     10 H2        -10.6072   28.2630   42.5206 H         1 ABN         0.2008
     11 H3        -11.5236   29.5735   42.1304 H         1 ABN         0.2008
     12 H4        -12.2374   26.8407   41.8893 H         1 ABN         0.0979
     13 H5        -13.2375   28.2708   41.4635 H         1 ABN         0.0979
     14 H6        -14.8476   28.8004   42.9953 H         1 ABN         0.0558
     15 H7        -15.6538   28.9467   45.3318 H         1 ABN         0.0599
     16 H8        -14.1917   28.2062   47.1986 H         1 ABN         0.0559
     17 H9        -11.9186   27.3275   46.7024 H         1 ABN         0.0599
     18 H10       -11.0960   27.1735   44.3682 H         1 ABN         0.0558
@<TRIPOS>BOND
     1    1    2 1  
     2    2    3 1  
     3    3    8 ar 
     4    3    4 ar 
     5    4    5 ar 
     6    5    6 ar 
     7    6    7 ar 
     8    7    8 ar 
     9    1    9 1  
    10    1   10 1  
    11    1   11 1  
    12    2   12 1  
    13    2   13 1  
    14    4   14 1  
    15    5   15 1  
    16    6   16 1  
    17    7   17 1  
    18    8   18 1  
@<TRIPOS>SUBSTRUCTURE
     1 ABN         1

