### 
### Created by X-TOOL on Mon Sep 10 21:12:54 2018
### 

@<TRIPOS>MOLECULE
2c0o_ligand
   86    92     1     0     0
SMALL
GAST_HUCK


@<TRIPOS>ATOM
      1 C1          2.9600   63.1120   13.1380 C.2       1 L2G         0.0592
      2 C2          3.9680   63.9010   12.5360 C.ar      1 L2G         0.0845
      3 C3          1.7120   63.5930   13.7790 C.ar      1 L2G        -0.0309
      4 N1          3.2810   61.8140   12.9140 N.2       1 L2G        -0.2015
      5 C4          4.9090   63.0450   12.0100 C.ar      1 L2G         0.1620
      6 C5          4.1730   65.2680   12.4440 C.ar      1 L2G         0.1270
      7 C6          0.8310   64.3810   13.0540 C.ar      1 L2G        -0.0373
      8 C7          1.3660   63.1700   15.0500 C.ar      1 L2G        -0.0767
      9 N2          4.4370   61.8310   12.1490 N.pl3     1 L2G        -0.1837
     10 N3          5.9940   63.5380   11.3690 N.ar      1 L2G        -0.2679
     11 N4          5.2890   65.7390   11.8220 N.ar      1 L2G        -0.2659
     12 N5          3.2780   66.1210   12.9560 N.pl3     1 L2G        -0.3126
     13 C8         -0.3790   64.7980   13.6180 C.ar      1 L2G         0.1140
     14 C9          0.1430   63.5880   15.6080 C.ar      1 L2G        -0.0463
     15 C10         5.0530   60.4790   11.9040 C.3       1 L2G         0.0805
     16 C11         6.2010   64.8700   11.3050 C.ar      1 L2G         0.0563
     17 C12        -0.7050   64.4440   14.8840 C.ar      1 L2G         0.0990
     18 O1         -1.2180   65.5770   12.9080 O.3       1 L2G        -0.3270
     19 C13         5.4850   59.8440   13.2290 C.3       1 L2G        -0.0165
     20 C14         4.0780   59.5490   11.1760 C.3       1 L2G        -0.0165
     21 N6         -1.9570   64.8220   15.3980 N.am      1 L2G        -0.2328
     22 C15        -0.7880   66.1220   11.6700 C.3       1 L2G         0.0563
     23 C16         6.1350   58.4770   12.9930 C.3       1 L2G        -0.0069
     24 C17         4.7330   58.1750   10.9210 C.3       1 L2G        -0.0069
     25 C18        -2.0980   65.3620   16.6060 C.2       1 L2G         0.2529
     26 C19         5.1790   57.5330   12.2510 C.3       1 L2G        -0.0205
     27 C20        -3.4920   65.6730   17.0870 C.2       1 L2G         0.1402
     28 O2         -1.1420   65.5740   17.3410 O.2       1 L2G        -0.3734
     29 N7          5.8480   56.2190   12.0270 N.4       1 L2G         0.2402
     30 N8         -3.8510   66.6410   18.0360 N.pl3     1 L2G        -0.2553
     31 C21        -4.6610   65.0280   16.6740 C.2       1 L2G        -0.0386
     32 C22         6.2480   56.0600   10.6380 C.3       1 L2G        -0.0107
     33 C23         4.9450   55.1310   12.3780 C.3       1 L2G        -0.0107
     34 C24        -5.2010   66.6080   18.2070 C.ar      1 L2G         0.0699
     35 C25        -2.9350   67.5510   18.7270 C.3       1 L2G         0.0407
     36 C26        -5.6490   65.6570   17.3920 C.ar      1 L2G        -0.0175
     37 C27         7.0960   54.7920   10.5080 C.3       1 L2G         0.0740
     38 C28         5.7480   53.8470   12.4190 C.3       1 L2G         0.0740
     39 C29        -6.0950   67.3580   19.0180 C.ar      1 L2G        -0.0403
     40 C30        -7.0130   65.3780   17.3380 C.ar      1 L2G        -0.0711
     41 N9          6.2760   53.6670   11.0550 N.am      1 L2G        -0.2633
     42 C31        -7.4530   67.0830   18.9860 C.ar      1 L2G        -0.0739
     43 C32        -7.9170   66.0980   18.1440 C.ar      1 L2G        -0.0763
     44 C33         6.1020   52.5220   10.3710 C.2       1 L2G         0.1757
     45 C34         5.3030   51.4370   11.0680 C.3       1 L2G         0.0258
     46 O3          6.5680   52.3620    9.2640 O.2       1 L2G        -0.3972
     47 H1          1.0822   64.6763   12.0417 H         1 L2G         0.0496
     48 H2          2.0304   62.5227   15.6109 H         1 L2G         0.0499
     49 H3          3.4351   67.1365   12.8850 H         1 L2G         0.1842
     50 H4          2.4320   65.7621   13.4211 H         1 L2G         0.1842
     51 H5         -0.1450   63.2495   16.5967 H         1 L2G         0.0477
     52 H6          5.9432   60.6134   11.2720 H         1 L2G         0.0659
     53 H7          7.1016   65.2517   10.8377 H         1 L2G         0.1029
     54 H8          4.6019   59.7167   13.8724 H         1 L2G         0.0297
     55 H9          6.2089   60.5060   13.7267 H         1 L2G         0.0297
     56 H10         3.7969   60.0006   10.2132 H         1 L2G         0.0297
     57 H11         3.1781   59.4123   11.7936 H         1 L2G         0.0297
     58 H12        -2.7716   64.6800   14.8356 H         1 L2G         0.2236
     59 H13        -1.5974   66.7264   11.2346 H         1 L2G         0.0572
     60 H14        -0.5285   65.3054   10.9802 H         1 L2G         0.0572
     61 H15         0.0950   66.7566   11.8357 H         1 L2G         0.0572
     62 H16         6.3984   58.0317   13.9637 H         1 L2G         0.0321
     63 H17         7.0463   58.6112   12.3917 H         1 L2G         0.0321
     64 H18         5.6105   58.3075   10.2710 H         1 L2G         0.0321
     65 H19         4.0064   57.5140   10.4259 H         1 L2G         0.0321
     66 H20         4.2875   57.3690   12.8742 H         1 L2G         0.0851
     67 H21         6.6679   56.1708   12.6114 H         1 L2G         0.2038
     68 H22        -4.7643   64.2181   15.9533 H         1 L2G         0.0399
     69 H23         6.8380   56.9327   10.3214 H         1 L2G         0.0834
     70 H24         5.3535   55.9725   10.0039 H         1 L2G         0.0834
     71 H25         4.1491   55.0489   11.6232 H         1 L2G         0.0834
     72 H26         4.4968   55.3220   13.3642 H         1 L2G         0.0834
     73 H27        -1.9045   67.3553   18.3957 H         1 L2G         0.0563
     74 H28        -3.0078   67.3900   19.8127 H         1 L2G         0.0563
     75 H29        -3.2045   68.5912   18.4916 H         1 L2G         0.0563
     76 H30         8.0266   54.8978   11.0848 H         1 L2G         0.0575
     77 H31         7.3386   54.6051    9.4515 H         1 L2G         0.0575
     78 H32         5.1037   52.9997   12.6964 H         1 L2G         0.0575
     79 H33         6.5727   53.9326   13.1419 H         1 L2G         0.0575
     80 H34        -5.7154   68.1440   19.6607 H         1 L2G         0.0550
     81 H35        -7.3801   64.6042   16.6735 H         1 L2G         0.0556
     82 H36        -8.1405   67.6362   19.6156 H         1 L2G         0.0550
     83 H37        -8.9772   65.8763   18.1010 H         1 L2G         0.0522
     84 H38         5.2304   50.5567   10.4124 H         1 L2G         0.0467
     85 H39         4.2933   51.8117   11.2919 H         1 L2G         0.0467
     86 H40         5.8060   51.1558   12.0050 H         1 L2G         0.0467
@<TRIPOS>BOND
     1    1    2 1  
     2    1    3 1  
     3    1    4 2  
     4    2    5 ar 
     5    2    6 ar 
     6    3    7 ar 
     7    3    8 ar 
     8    4    9 1  
     9    5    9 1  
    10    5   10 ar 
    11    6   11 ar 
    12    6   12 1  
    13    7   13 ar 
    14    8   14 ar 
    15    9   15 1  
    16   10   16 ar 
    17   11   16 ar 
    18   13   17 ar 
    19   13   18 1  
    20   14   17 ar 
    21   15   19 1  
    22   15   20 1  
    23   17   21 1  
    24   18   22 1  
    25   19   23 1  
    26   20   24 1  
    27   21   25 am 
    28   23   26 1  
    29   24   26 1  
    30   25   27 1  
    31   25   28 2  
    32   26   29 1  
    33   27   30 1  
    34   27   31 2  
    35   29   32 1  
    36   29   33 1  
    37   30   34 1  
    38   30   35 1  
    39   31   36 1  
    40   32   37 1  
    41   33   38 1  
    42   34   36 ar 
    43   34   39 ar 
    44   36   40 ar 
    45   37   41 1  
    46   38   41 1  
    47   39   42 ar 
    48   40   43 ar 
    49   41   44 am 
    50   42   43 ar 
    51   44   45 1  
    52   44   46 2  
    53    7   47 1  
    54    8   48 1  
    55   12   49 1  
    56   12   50 1  
    57   14   51 1  
    58   15   52 1  
    59   16   53 1  
    60   19   54 1  
    61   19   55 1  
    62   20   56 1  
    63   20   57 1  
    64   21   58 1  
    65   22   59 1  
    66   22   60 1  
    67   22   61 1  
    68   23   62 1  
    69   23   63 1  
    70   24   64 1  
    71   24   65 1  
    72   26   66 1  
    73   29   67 1  
    74   31   68 1  
    75   32   69 1  
    76   32   70 1  
    77   33   71 1  
    78   33   72 1  
    79   35   73 1  
    80   35   74 1  
    81   35   75 1  
    82   37   76 1  
    83   37   77 1  
    84   38   78 1  
    85   38   79 1  
    86   39   80 1  
    87   40   81 1  
    88   42   82 1  
    89   43   83 1  
    90   45   84 1  
    91   45   85 1  
    92   45   86 1  
@<TRIPOS>SUBSTRUCTURE
     1 L2G         1

