### 
### Created by X-TOOL on Mon Sep 10 21:12:52 2018
### 

@<TRIPOS>MOLECULE
2c1a_ligand
   51    53     1     0     0
SMALL
GAST_HUCK


@<TRIPOS>ATOM
      1 CL1        12.9800   14.4640   -0.2000 Cl        1 I5S        -0.0771
      2 C2         13.4670   13.2150    0.8600 C.ar      1 I5S         0.0330
      3 C3         12.8060   13.0070    2.0610 C.ar      1 I5S        -0.0545
      4 C4         13.2320   11.9960    2.9010 C.ar      1 I5S        -0.0575
      5 C5         14.3410   11.2320    2.5390 C.ar      1 I5S        -0.0172
      6 C6         14.7610   10.1120    3.4440 C.3       1 I5S         0.0820
      7 O7         13.7410    9.1450    3.1360 O.3       1 I5S        -0.3620
      8 C8         14.2370    7.8400    3.2240 C.3       1 I5S         0.0901
      9 C9         13.1630    6.7670    3.0450 C.3       1 I5S        -0.0094
     10 N10        11.8370    7.2790    2.6380 N.4       1 I5S         0.2297
     11 C13        11.0990    7.8460    3.7530 C.3       1 I5S        -0.0164
     12 C14         9.5890    7.8320    3.4420 C.3       1 I5S         0.0665
     13 N15         8.9710    8.6680    4.4780 N.am      1 I5S        -0.2421
     14 S16         8.7360   10.2570    4.1790 S.o2      1 I5S         0.0706
     15 O17         8.4880   10.6990    5.4780 O.2       1 I5S        -0.1500
     16 O18         9.7340   10.7660    3.3120 O.2       1 I5S        -0.1500
     17 C19         7.3110   10.2930    3.1490 C.ar      1 I5S         0.1234
     18 C20         7.4900   10.4080    1.7910 C.ar      1 I5S        -0.0287
     19 C21         6.4020   10.4050    0.8900 C.ar      1 I5S        -0.0534
     20 C22         5.1240   10.3480    1.3600 C.ar      1 I5S        -0.0451
     21 C23         4.8920   10.2740    2.7480 C.ar      1 I5S         0.0110
     22 C24         3.5630   10.2000    3.2420 C.ar      1 I5S         0.0199
     23 N25         3.3130   10.1080    4.5290 N.ar      1 I5S        -0.2974
     24 C26         4.3100   10.1000    5.4270 C.ar      1 I5S         0.0077
     25 C27         5.6460   10.1750    5.0400 C.ar      1 I5S        -0.0294
     26 C28         5.9830   10.2650    3.6710 C.ar      1 I5S         0.0243
     27 C29        14.9900   11.4290    1.3290 C.ar      1 I5S        -0.0575
     28 C30        14.5620   12.4350    0.4890 C.ar      1 I5S        -0.0545
     29 H1         11.9640   13.6309    2.3380 H         1 I5S         0.0606
     30 H2         12.7102   11.7990    3.8305 H         1 I5S         0.0558
     31 H3         14.7340   10.4105    4.5024 H         1 I5S         0.0725
     32 H4         15.7653    9.7396    3.1935 H         1 I5S         0.0725
     33 H5         14.6988    7.7089    4.2137 H         1 I5S         0.0615
     34 H6         14.9992    7.7036    2.4427 H         1 I5S         0.0615
     35 H7         13.0462    6.2368    4.0016 H         1 I5S         0.0837
     36 H8         13.5087    6.0619    2.2747 H         1 I5S         0.0837
     37 H9         11.3018    6.5190    2.2481 H         1 I5S         0.2015
     38 H10        11.9660    7.9929    1.9382 H         1 I5S         0.2015
     39 H11        11.4278    8.8825    3.9191 H         1 I5S         0.0830
     40 H12        11.2908    7.2509    4.6580 H         1 I5S         0.0830
     41 H13         9.1955    6.8059    3.4898 H         1 I5S         0.0528
     42 H14         9.3976    8.2520    2.4435 H         1 I5S         0.0528
     43 H15         8.6977    8.2708    5.3541 H         1 I5S         0.1675
     44 H16         8.4963   10.5039    1.3997 H         1 I5S         0.0675
     45 H17         6.5840   10.4481   -0.1777 H         1 I5S         0.0645
     46 H18         4.2891   10.3595    0.6687 H         1 I5S         0.0659
     47 H19         2.7357   10.2198    2.5418 H         1 I5S         0.0870
     48 H20         4.0693   10.0334    6.4818 H         1 I5S         0.0775
     49 H21         6.4282   10.1643    5.7904 H         1 I5S         0.0716
     50 H22        15.8253   10.7984    1.0467 H         1 I5S         0.0558
     51 H23        15.0714   12.6178   -0.4502 H         1 I5S         0.0606
@<TRIPOS>BOND
     1    1    2 1  
     2    2    3 ar 
     3    2   28 ar 
     4    3    4 ar 
     5    4    5 ar 
     6    5    6 1  
     7    5   27 ar 
     8    6    7 1  
     9    7    8 1  
    10    8    9 1  
    11    9   10 1  
    12   10   11 1  
    13   11   12 1  
    14   12   13 1  
    15   13   14 am 
    16   14   15 2  
    17   14   16 2  
    18   14   17 1  
    19   17   18 ar 
    20   17   26 ar 
    21   18   19 ar 
    22   19   20 ar 
    23   20   21 ar 
    24   21   22 ar 
    25   21   26 ar 
    26   22   23 ar 
    27   23   24 ar 
    28   24   25 ar 
    29   25   26 ar 
    30   27   28 ar 
    31    3   29 1  
    32    4   30 1  
    33    6   31 1  
    34    6   32 1  
    35    8   33 1  
    36    8   34 1  
    37    9   35 1  
    38    9   36 1  
    39   10   37 1  
    40   10   38 1  
    41   11   39 1  
    42   11   40 1  
    43   12   41 1  
    44   12   42 1  
    45   13   43 1  
    46   18   44 1  
    47   19   45 1  
    48   20   46 1  
    49   22   47 1  
    50   24   48 1  
    51   25   49 1  
    52   27   50 1  
    53   28   51 1  
@<TRIPOS>SUBSTRUCTURE
     1 I5S         1

