### 
### Created by X-TOOL on Mon Sep 10 21:12:52 2018
### 

@<TRIPOS>MOLECULE
2c1b_ligand
   52    55     1     0     0
SMALL
GAST_HUCK


@<TRIPOS>ATOM
      1 CL1        12.6650   14.1950   -0.1330 Cl        1 CQP        -0.0771
      2 C2         13.2450   12.7580    0.5420 C.ar      1 CQP         0.0330
      3 C3         14.0250   11.9220   -0.2550 C.ar      1 CQP        -0.0545
      4 C4         14.5520   10.7540    0.2910 C.ar      1 CQP        -0.0575
      5 C5         14.3060   10.4030    1.6290 C.ar      1 CQP        -0.0172
      6 C6         14.9490    9.1530    2.1380 C.3       1 CQP         0.0824
      7 O7         14.3120    8.6760    3.3390 O.3       1 CQP        -0.3586
      8 C8         13.5600    7.4940    3.0620 C.3       1 CQP         0.1060
      9 C10        12.9710    7.0150    4.5000 C.3       1 CQP        -0.0061
     10 N10        11.9460    8.3050    4.8150 N.4       1 CQP         0.2322
     11 C13        11.2540    8.5020    3.4830 C.3       1 CQP        -0.0028
     12 C14         9.8230    7.9390    3.5500 C.3       1 CQP         0.0694
     13 N15         9.0270    8.5410    4.6020 N.am      1 CQP        -0.2418
     14 S16         8.4960   10.0900    4.5320 S.o2      1 CQP         0.0706
     15 O17         9.4500   10.9570    3.9800 O.2       1 CQP        -0.1500
     16 O18         8.1120   10.3760    5.8610 O.2       1 CQP        -0.1500
     17 C19         7.2260   10.1130    3.4510 C.ar      1 CQP         0.1234
     18 C20         7.5180   10.2640    2.0960 C.ar      1 CQP        -0.0287
     19 C21         6.5270   10.3200    1.0980 C.ar      1 CQP        -0.0534
     20 C22         5.1920   10.2040    1.4400 C.ar      1 CQP        -0.0451
     21 C23         4.8390   10.0630    2.8030 C.ar      1 CQP         0.0110
     22 C24         3.4600    9.9370    3.1700 C.ar      1 CQP         0.0199
     23 N25         3.0440    9.7730    4.4140 N.ar      1 CQP        -0.2974
     24 C26         3.9990    9.7300    5.4010 C.ar      1 CQP         0.0077
     25 C27         5.3690    9.8210    5.1730 C.ar      1 CQP        -0.0294
     26 C28         5.8450   10.0030    3.8310 C.ar      1 CQP         0.0243
     27 C29        13.5070   11.2510    2.4190 C.ar      1 CQP        -0.0575
     28 C31        12.0980    7.8580    2.3790 C.3       1 CQP         0.0233
     29 C30        12.9890   12.4240    1.8830 C.ar      1 CQP        -0.0545
     30 H1         14.2197   12.1784   -1.2901 H         1 CQP         0.0606
     31 H2         15.1621   10.1050   -0.3267 H         1 CQP         0.0558
     32 H3         16.0076    9.3594    2.3541 H         1 CQP         0.0725
     33 H4         14.8777    8.3749    1.3638 H         1 CQP         0.0725
     34 H5         14.1431    6.7416    2.5108 H         1 CQP         0.0654
     35 H6         13.7621    6.9235    5.2588 H         1 CQP         0.0840
     36 H7         12.4238    6.0638    4.4242 H         1 CQP         0.0840
     37 H8         12.4652    9.1269    5.0814 H         1 CQP         0.2018
     38 H9         11.2838    8.0763    5.5397 H         1 CQP         0.2018
     39 H10        11.1855    9.5802    3.2762 H         1 CQP         0.0867
     40 H11         9.8805    6.8554    3.7302 H         1 CQP         0.0531
     41 H12         9.3276    8.1246    2.5856 H         1 CQP         0.0531
     42 H13         8.7927    7.9890    5.4022 H         1 CQP         0.1675
     43 H14         8.5571   10.3419    1.7971 H         1 CQP         0.0675
     44 H15         6.8105   10.4542    0.0604 H         1 CQP         0.0645
     45 H16         4.4256   10.2209    0.6735 H         1 CQP         0.0659
     46 H17         2.7156    9.9785    2.3831 H         1 CQP         0.0870
     47 H18         3.6630    9.6177    6.4255 H         1 CQP         0.0775
     48 H19         6.0681    9.7552    5.9988 H         1 CQP         0.0716
     49 H20        13.2950   10.9882    3.4491 H         1 CQP         0.0558
     50 H21        11.6106    6.9425    2.0126 H         1 CQP         0.0348
     51 H22        12.2326    8.5611    1.5439 H         1 CQP         0.0348
     52 H23        12.3871   13.0817    2.4996 H         1 CQP         0.0606
@<TRIPOS>BOND
     1    1    2 1  
     2    2    3 ar 
     3    2   29 ar 
     4    3    4 ar 
     5    4    5 ar 
     6    5    6 1  
     7    5   27 ar 
     8    6    7 1  
     9    7    8 1  
    10    8    9 1  
    11    8   28 1  
    12    9   10 1  
    13   10   11 1  
    14   11   12 1  
    15   11   28 1  
    16   12   13 1  
    17   13   14 am 
    18   14   15 2  
    19   14   16 2  
    20   14   17 1  
    21   17   18 ar 
    22   17   26 ar 
    23   18   19 ar 
    24   19   20 ar 
    25   20   21 ar 
    26   21   22 ar 
    27   21   26 ar 
    28   22   23 ar 
    29   23   24 ar 
    30   24   25 ar 
    31   25   26 ar 
    32   27   29 ar 
    33    3   30 1  
    34    4   31 1  
    35    6   32 1  
    36    6   33 1  
    37    8   34 1  
    38    9   35 1  
    39    9   36 1  
    40   10   37 1  
    41   10   38 1  
    42   11   39 1  
    43   12   40 1  
    44   12   41 1  
    45   13   42 1  
    46   18   43 1  
    47   19   44 1  
    48   20   45 1  
    49   22   46 1  
    50   24   47 1  
    51   25   48 1  
    52   27   49 1  
    53   28   50 1  
    54   28   51 1  
    55   29   52 1  
@<TRIPOS>SUBSTRUCTURE
     1 CQP         1

