### 
### Created by X-TOOL on Mon Sep 10 21:12:55 2018
### 

@<TRIPOS>MOLECULE
2c1p_ligand
   39    41     1     0     0
SMALL
GAST_HUCK


@<TRIPOS>ATOM
      1 C1         53.9600   43.1820   66.3780 C.3       1 FNZ         0.1516
      2 C2         53.6350   42.3480   65.1270 C.3       1 FNZ         0.1078
      3 C3         54.7240   42.5050   64.0620 C.3       1 FNZ         0.0103
      4 C4         54.2980   41.8520   62.7710 C.ar      1 FNZ        -0.0441
      5 C5         53.5760   42.5690   61.8070 C.ar      1 FNZ        -0.0619
      6 C6         53.1390   41.9590   60.6130 C.ar      1 FNZ        -0.0349
      7 C7         53.4500   40.6260   60.3910 C.ar      1 FNZ         0.1248
      8 C8         54.1820   39.8900   61.3190 C.ar      1 FNZ        -0.0349
      9 C9         54.5960   40.5110   62.5120 C.ar      1 FNZ        -0.0619
     10 C10        55.3160   42.8550   67.0090 C.ar      1 FNZ         0.0046
     11 C11        55.7220   41.5310   67.2640 C.ar      1 FNZ        -0.0454
     12 C12        56.9980   41.2330   67.7970 C.ar      1 FNZ        -0.0333
     13 C13        57.8780   42.3020   68.0710 C.ar      1 FNZ         0.0883
     14 C14        57.4840   43.6350   67.8560 C.ar      1 FNZ        -0.0333
     15 C15        56.2050   43.8850   67.3310 C.ar      1 FNZ        -0.0454
     16 C16        59.2030   42.0370   68.5760 C.1       1 FNZ         0.0934
     17 C17        50.8890   43.0990   68.0360 C.2       1 FNZ         0.0620
     18 C18        52.8040   42.5920   68.6190 C.2       1 FNZ         0.1306
     19 O2         53.5110   40.9660   65.4840 O.3       1 FNZ        -0.3842
     20 F7         53.0300   40.0210   59.2360 F         1 FNZ        -0.1893
     21 N1         60.2530   41.8330   68.9720 N.1       1 FNZ        -0.3338
     22 N2         52.8370   43.0320   67.3340 N.pl3     1 FNZ        -0.1593
     23 N3         51.5760   43.3620   66.9520 N.2       1 FNZ        -0.1876
     24 N4         51.5800   42.6540   69.0700 N.2       1 FNZ        -0.2868
     25 H1         54.0017   44.2374   66.0708 H         1 FNZ         0.0893
     26 H2         52.6792   42.6971   64.7093 H         1 FNZ         0.0674
     27 H3         55.6504   42.0312   64.4188 H         1 FNZ         0.0446
     28 H4         54.9046   43.5753   63.8839 H         1 FNZ         0.0446
     29 H5         53.3488   43.6142   61.9830 H         1 FNZ         0.0547
     30 H6         52.5702   42.5220   59.8819 H         1 FNZ         0.0587
     31 H7         54.4296   38.8526   61.1251 H         1 FNZ         0.0587
     32 H8         55.1560   39.9393   63.2432 H         1 FNZ         0.0547
     33 H9         55.0385   40.7184   67.0460 H         1 FNZ         0.0584
     34 H10        57.2930   40.2080   67.9904 H         1 FNZ         0.0701
     35 H11        58.1544   44.4538   68.0909 H         1 FNZ         0.0701
     36 H12        55.8968   44.9117   67.1701 H         1 FNZ         0.0584
     37 H13        49.8100   43.2392   68.0820 H         1 FNZ         0.0864
     38 H14        53.6655   42.2416   69.1856 H         1 FNZ         0.1363
     39 H15        52.8351   40.8702   66.1447 H         1 FNZ         0.2104
@<TRIPOS>BOND
     1    1    2 1  
     2    1   10 1  
     3   22    1 1  
     4    2    3 1  
     5    2   19 1  
     6    3    4 1  
     7    4    5 ar 
     8    4    9 ar 
     9    5    6 ar 
    10    6    7 ar 
    11    8    7 ar 
    12    7   20 1  
    13    9    8 ar 
    14   10   11 ar 
    15   10   15 ar 
    16   11   12 ar 
    17   12   13 ar 
    18   14   13 ar 
    19   13   16 1  
    20   15   14 ar 
    21   16   21 3  
    22   17   23 2  
    23   24   17 1  
    24   18   22 1  
    25   18   24 2  
    26   22   23 1  
    27    1   25 1  
    28    2   26 1  
    29    3   27 1  
    30    3   28 1  
    31    5   29 1  
    32    6   30 1  
    33    8   31 1  
    34    9   32 1  
    35   11   33 1  
    36   12   34 1  
    37   14   35 1  
    38   15   36 1  
    39   17   37 1  
    40   18   38 1  
    41   19   39 1  
@<TRIPOS>SUBSTRUCTURE
     1 FNZ         1

