### 
### Created by X-TOOL on Mon Sep 10 21:12:55 2018
### 

@<TRIPOS>MOLECULE
2c1q_ligand
   31    32     1     0     0
SMALL
GAST_HUCK


@<TRIPOS>ATOM
      1 C11        -6.8880   12.4590    8.9790 C.2       1 BTN         0.0348
      2 O11        -7.9430   11.7630    8.9240 O.co2     1 BTN        -0.5690
      3 O12        -6.6640   13.2550    8.0460 O.co2     1 BTN        -0.5690
      4 C10        -5.9290   12.3860   10.1680 C.3       1 BTN         0.0002
      5 C9         -4.6170   13.1360    9.9140 C.3       1 BTN        -0.0414
      6 C8         -3.6740   12.1340    9.2320 C.3       1 BTN        -0.0505
      7 C7         -2.3490   12.7340    8.7960 C.3       1 BTN        -0.0389
      8 C2         -1.5610   11.7360    7.9390 C.3       1 BTN         0.0302
      9 S1         -1.0550   10.3450    8.7830 S.3       1 BTN        -0.1527
     10 C6          0.1290   10.0140    7.4760 C.3       1 BTN         0.0190
     11 C5          0.6350   11.3050    6.9030 C.3       1 BTN         0.0750
     12 N1          1.8540   11.5970    7.6180 N.am      1 BTN        -0.2671
     13 C3          1.6650   12.6270    8.4250 C.2       1 BTN         0.2580
     14 O3          2.6810   13.1150    9.2310 O.2       1 BTN        -0.4008
     15 N2          0.4150   13.1100    8.3640 N.am      1 BTN        -0.2668
     16 C4         -0.3270   12.4060    7.3470 C.3       1 BTN         0.0775
     17 H1         -5.6975   11.3297   10.3696 H         1 BTN         0.0430
     18 H2         -6.4226   12.8273   11.0464 H         1 BTN         0.0430
     19 H3         -4.1843   13.4798   10.8651 H         1 BTN         0.0283
     20 H4         -4.7934   14.0008    9.2575 H         1 BTN         0.0283
     21 H5         -4.1810   11.7314    8.3427 H         1 BTN         0.0267
     22 H6         -3.4680   11.3163    9.9384 H         1 BTN         0.0267
     23 H7         -1.7577   12.9910    9.6872 H         1 BTN         0.0277
     24 H8         -2.5401   13.6437    8.2078 H         1 BTN         0.0277
     25 H9         -2.2170   11.4144    7.1167 H         1 BTN         0.0435
     26 H10        -0.3588    9.4295    6.6820 H         1 BTN         0.0399
     27 H11         0.9740    9.4416    7.8863 H         1 BTN         0.0399
     28 H12         0.7677   11.2628    5.8119 H         1 BTN         0.0584
     29 H13         2.7132   11.0953    7.5180 H         1 BTN         0.1849
     30 H14         0.0529   13.8458    8.9362 H         1 BTN         0.1849
     31 H15        -0.6070   13.0722    6.5177 H         1 BTN         0.0587
@<TRIPOS>BOND
     1    1    2 ar 
     2    1    3 ar 
     3    1    4 1  
     4    4    5 1  
     5    5    6 1  
     6    6    7 1  
     7    7    8 1  
     8    8    9 1  
     9    8   16 1  
    10    9   10 1  
    11   10   11 1  
    12   11   12 1  
    13   11   16 1  
    14   12   13 am 
    15   13   14 2  
    16   13   15 am 
    17   15   16 1  
    18    4   17 1  
    19    4   18 1  
    20    5   19 1  
    21    5   20 1  
    22    6   21 1  
    23    6   22 1  
    24    7   23 1  
    25    7   24 1  
    26    8   25 1  
    27   10   26 1  
    28   10   27 1  
    29   11   28 1  
    30   12   29 1  
    31   15   30 1  
    32   16   31 1  
@<TRIPOS>SUBSTRUCTURE
     1 BTN         1

