### 
### Created by X-TOOL on Mon Sep 10 21:12:52 2018
### 

@<TRIPOS>MOLECULE
2c3j_ligand
   29    31     1     0     0
SMALL
GAST_HUCK


@<TRIPOS>ATOM
      1 O1          3.8910   -1.6130   20.6180 O.2       1 DBQ        -0.3923
      2 C5          4.6820   -2.1690   19.8560 C.2       1 DBQ         0.2186
      3 N2          5.8350   -1.5040   19.6480 N.am      1 DBQ        -0.2854
      4 C6          6.9320   -1.9230   18.7260 C.3       1 DBQ         0.0392
      5 C7          7.2570   -3.4210   18.7060 C.3       1 DBQ        -0.0020
      6 C4          4.2260   -3.4420   19.1550 C.2       1 DBQ         0.1364
      7 N1          2.9680   -3.8670   19.2840 N.pl3     1 DBQ        -0.2752
      8 C1          2.8680   -4.9560   18.5270 C.2       1 DBQ         0.0247
      9 C2          4.0210   -5.1950   17.9190 C.2       1 DBQ        -0.0633
     10 C3          4.9030   -4.2910   18.2760 C.2       1 DBQ        -0.0140
     11 C8          6.2330   -4.1570   17.8520 C.2       1 DBQ        -0.0373
     12 C9          6.6440   -4.6530   16.5770 C.2       1 DBQ         0.0485
     13 N4          5.8280   -5.0760   15.5920 N.2       1 DBQ        -0.3267
     14 C11         6.5780   -5.4850   14.5490 C.2       1 DBQ         0.2115
     15 N5          6.0800   -5.9690   13.3800 N.pl3     1 DBQ        -0.2883
     16 N3          7.8860   -5.3230   14.8290 N.am      1 DBQ        -0.1912
     17 C10         7.9630   -4.7940   16.0580 C.2       1 DBQ         0.2234
     18 O2          9.0500   -4.4800   16.5640 O.2       1 DBQ        -0.3836
     19 H1          5.9680   -0.6534   20.1568 H         1 DBQ         0.1836
     20 H2          7.8444   -1.3845   19.0218 H         1 DBQ         0.0542
     21 H3          6.6459   -1.6270   17.7059 H         1 DBQ         0.0542
     22 H4          7.2280   -3.8152   19.7325 H         1 DBQ         0.0449
     23 H5          8.2614   -3.5717   18.2835 H         1 DBQ         0.0449
     24 H6          2.2249   -3.4386   19.8542 H         1 DBQ         0.2373
     25 H7          1.9698   -5.5627   18.4221 H         1 DBQ         0.0898
     26 H8          4.2081   -6.0161   17.2286 H         1 DBQ         0.0321
     27 H9          5.0620   -6.0593   13.2521 H         1 DBQ         0.1872
     28 H10         6.7208   -6.2453   12.6224 H         1 DBQ         0.1872
     29 H11         8.6545   -5.5540   14.2323 H         1 DBQ         0.2414
@<TRIPOS>BOND
     1    1    2 2  
     2    2    3 am 
     3    2    6 1  
     4    3    4 1  
     5    4    5 1  
     6    5   11 1  
     7    6    7 1  
     8    6   10 2  
     9    7    8 1  
    10    8    9 2  
    11    9   10 1  
    12   10   11 1  
    13   11   12 2  
    14   12   13 1  
    15   12   17 1  
    16   13   14 2  
    17   14   15 1  
    18   14   16 am 
    19   16   17 am 
    20   17   18 2  
    21    3   19 1  
    22    4   20 1  
    23    4   21 1  
    24    5   22 1  
    25    5   23 1  
    26    7   24 1  
    27    8   25 1  
    28    9   26 1  
    29   15   27 1  
    30   15   28 1  
    31   16   29 1  
@<TRIPOS>SUBSTRUCTURE
     1 DBQ         1

