### 
### Created by X-TOOL on Mon Sep 10 21:12:52 2018
### 

@<TRIPOS>MOLECULE
2c3k_ligand
   43    47     1     0     0
SMALL
GAST_HUCK


@<TRIPOS>ATOM
      1 C18        11.2310   -0.1250   15.1820 C.3       1 ABO         0.0569
      2 O17        11.8930   -1.4760   15.0520 O.3       1 ABO        -0.3247
      3 C12        11.1870   -2.6100   15.4600 C.ar      1 ABO         0.1206
      4 C11         9.9570   -2.5380   16.1460 C.ar      1 ABO        -0.0336
      5 C13        11.7240   -3.8680   15.1770 C.ar      1 ABO         0.1182
      6 O16        12.9170   -3.9530   14.5240 O.3       1 ABO        -0.3355
      7 C14        11.0670   -5.0410   15.5660 C.ar      1 ABO        -0.0394
      8 C15         9.8320   -4.9620   16.2470 C.ar      1 ABO        -0.0730
      9 C10         9.2670   -3.7090   16.5360 C.ar      1 ABO        -0.0400
     10 C8          8.0420   -3.6070   17.1980 C.ar      1 ABO        -0.0352
     11 C9          7.8340   -2.5150   18.0840 C.ar      1 ABO        -0.0291
     12 C7          7.0320   -4.5550   16.9740 C.ar      1 ABO        -0.0662
     13 C6          5.8090   -4.4260   17.6510 C.ar      1 ABO        -0.0628
     14 C5          5.5940   -3.3580   18.5350 C.ar      1 ABO         0.0252
     15 C4          6.6090   -2.4110   18.7520 C.ar      1 ABO         0.0921
     16 N3          6.1230   -1.5090   19.6460 N.pl3     1 ABO        -0.2054
     17 N1          4.9440   -1.7580   19.9970 N.2       1 ABO        -0.1791
     18 C2          4.5470   -2.9170   19.3950 C.2       1 ABO         0.1193
     19 C19         3.2700   -3.4680   19.5110 C.2       1 ABO         0.1504
     20 N21         2.8070   -4.6480   19.0080 N.pl3     1 ABO        -0.2493
     21 C22         1.4830   -4.7110   19.3330 C.ar      1 ABO         0.0815
     22 C27         0.5210   -5.6750   19.1010 C.ar      1 ABO        -0.0396
     23 C26        -0.8230   -5.5190   19.5170 C.ar      1 ABO        -0.0745
     24 C25        -1.1880   -4.3380   20.2210 C.ar      1 ABO        -0.0763
     25 C24        -0.1840   -3.3420   20.4740 C.ar      1 ABO        -0.0614
     26 C23         1.1250   -3.5390   20.0150 C.ar      1 ABO         0.0315
     27 N20         2.2350   -2.7870   20.1170 N.2       1 ABO        -0.3063
     28 H1         11.9162    0.6554   14.8195 H         1 ABO         0.0573
     29 H2         10.9864    0.0634   16.2378 H         1 ABO         0.0573
     30 H3         10.3083   -0.1097   14.5834 H         1 ABO         0.0573
     31 H4          9.5330   -1.5678   16.3784 H         1 ABO         0.0513
     32 H5         13.1476   -4.8670   14.4058 H         1 ABO         0.2453
     33 H6         11.5048   -6.0078   15.3452 H         1 ABO         0.0516
     34 H7          9.3199   -5.8691   16.5468 H         1 ABO         0.0509
     35 H8          8.6112   -1.7755   18.2394 H         1 ABO         0.0551
     36 H9          7.1942   -5.3772   16.2864 H         1 ABO         0.0534
     37 H10         5.0250   -5.1570   17.4896 H         1 ABO         0.0590
     38 H11         6.6648   -0.7067   19.9977 H         1 ABO         0.2507
     39 H12         3.3488   -5.3518   18.4865 H         1 ABO         0.2301
     40 H13         0.8055   -6.5831   18.5819 H         1 ABO         0.0546
     41 H14        -1.5599   -6.2847   19.3032 H         1 ABO         0.0544
     42 H15        -2.2069   -4.1920   20.5610 H         1 ABO         0.0523
     43 H16        -0.4387   -2.4401   21.0188 H         1 ABO         0.0551
@<TRIPOS>BOND
     1    1    2 1  
     2    2    3 1  
     3    3    4 ar 
     4    3    5 ar 
     5    4    9 ar 
     6    5    6 1  
     7    5    7 ar 
     8    7    8 ar 
     9    8    9 ar 
    10    9   10 1  
    11   10   11 ar 
    12   10   12 ar 
    13   11   15 ar 
    14   12   13 ar 
    15   13   14 ar 
    16   14   15 ar 
    17   14   18 1  
    18   15   16 1  
    19   16   17 1  
    20   17   18 2  
    21   18   19 1  
    22   19   20 1  
    23   19   27 2  
    24   20   21 1  
    25   21   22 ar 
    26   21   26 ar 
    27   22   23 ar 
    28   23   24 ar 
    29   24   25 ar 
    30   25   26 ar 
    31   26   27 1  
    32    1   28 1  
    33    1   29 1  
    34    1   30 1  
    35    4   31 1  
    36    6   32 1  
    37    7   33 1  
    38    8   34 1  
    39   11   35 1  
    40   12   36 1  
    41   13   37 1  
    42   16   38 1  
    43   20   39 1  
    44   22   40 1  
    45   23   41 1  
    46   24   42 1  
    47   25   43 1  
@<TRIPOS>SUBSTRUCTURE
     1 ABO         1

