### 
### Created by X-TOOL on Mon Sep 10 21:12:52 2018
### 

@<TRIPOS>MOLECULE
2c3l_ligand
   28    31     1     0     0
SMALL
GAST_HUCK


@<TRIPOS>ATOM
      1 C1         12.9690   -1.0580   10.5270 C.ar      1 IDZ        -0.0337
      2 C2         12.9210   -2.2890   11.1980 C.ar      1 IDZ        -0.0697
      3 C3         14.0700   -3.0830   11.2980 C.ar      1 IDZ        -0.0718
      4 C4         15.2760   -2.6510   10.7470 C.ar      1 IDZ        -0.0624
      5 C5         15.3220   -1.4250   10.1210 C.ar      1 IDZ         0.0262
      6 C6         16.3020   -0.6970    9.4410 C.2       1 IDZ         0.1200
      7 C7         17.6240   -1.0920    9.2810 C.2       1 IDZ         0.1505
      8 N8         18.5490   -0.3310    8.6630 N.2       1 IDZ        -0.3064
      9 C9         19.6850   -0.9910    8.6940 C.ar      1 IDZ         0.0315
     10 C10        20.9490   -0.6950    8.1820 C.ar      1 IDZ        -0.0614
     11 C11        21.9990   -1.6140    8.3680 C.ar      1 IDZ        -0.0763
     12 C12        21.7500   -2.8210    9.0310 C.ar      1 IDZ        -0.0745
     13 C13        20.4750   -3.1150    9.5490 C.ar      1 IDZ        -0.0396
     14 C14        19.4410   -2.1870    9.3850 C.ar      1 IDZ         0.0815
     15 N16        14.5550    0.4580    9.3040 N.pl3     1 IDZ        -0.2046
     16 C17        14.1830   -0.6430    9.9890 C.ar      1 IDZ         0.0934
     17 NAL        18.1490   -2.2240    9.7200 N.pl3     1 IDZ        -0.2493
     18 NAI        15.7710    0.4450    8.9830 N.2       1 IDZ        -0.1782
     19 H1         12.0807   -0.4443   10.4299 H         1 IDZ         0.0564
     20 H2         11.9910   -2.6268   11.6407 H         1 IDZ         0.0581
     21 H3         14.0218   -4.0390   11.8067 H         1 IDZ         0.0537
     22 H4         16.1634   -3.2704   10.8104 H         1 IDZ         0.0591
     23 H5         21.1204    0.2321    7.6471 H         1 IDZ         0.0551
     24 H6         22.9934   -1.3883    8.0003 H         1 IDZ         0.0523
     25 H7         22.5520   -3.5409    9.1474 H         1 IDZ         0.0544
     26 H8         20.2962   -4.0493   10.0688 H         1 IDZ         0.0546
     27 H9         13.9117    1.2273    9.0689 H         1 IDZ         0.2511
     28 H10        17.6601   -2.9808   10.2192 H         1 IDZ         0.2301
@<TRIPOS>BOND
     1    1    2 ar 
     2    1   16 ar 
     3    2    3 ar 
     4    3    4 ar 
     5    4    5 ar 
     6    5    6 1  
     7    5   16 ar 
     8    6    7 1  
     9    6   18 2  
    10    7    8 2  
    11    7   17 1  
    12    8    9 1  
    13    9   10 ar 
    14    9   14 ar 
    15   10   11 ar 
    16   11   12 ar 
    17   12   13 ar 
    18   13   14 ar 
    19   14   17 1  
    20   16   15 1  
    21   15   18 1  
    22    1   19 1  
    23    2   20 1  
    24    3   21 1  
    25    4   22 1  
    26   10   23 1  
    27   11   24 1  
    28   12   25 1  
    29   13   26 1  
    30   15   27 1  
    31   17   28 1  
@<TRIPOS>SUBSTRUCTURE
     1 IDZ         1

