### 
### Created by X-TOOL on Mon Sep 10 21:12:54 2018
### 

@<TRIPOS>MOLECULE
2c4f_ligand
   77    79     1     0     0
SMALL
GAST_HUCK


@<TRIPOS>ATOM
      1 C1         29.6120    7.3760   13.8900 C.ar      1 GIL         0.0182
      2 C2         28.8860    8.4860   13.3660 C.ar      1 GIL        -0.0669
      3 C3         28.8890    8.7630   11.9820 C.ar      1 GIL        -0.0695
      4 C4         29.6210    7.9390   11.1040 C.ar      1 GIL        -0.0282
      5 C5         30.3540    6.8330   11.6060 C.ar      1 GIL         0.1174
      6 C6         30.3450    6.5540   12.9920 C.ar      1 GIL        -0.0230
      7 C7         29.6020    7.0890   15.3360 C.cat     1 GIL         0.2332
      8 N1         30.2890    6.0190   15.8100 N.pl3     1 GIL        -0.2723
      9 N2         28.9270    7.8630   16.1920 N.pl3     1 GIL        -0.2723
     10 C11        31.8540    6.5290    9.7510 C.ar      1 GIL         0.1956
     11 C12        33.0290    7.3200    9.9750 C.ar      1 GIL         0.1939
     12 N3         31.3860    6.2720    8.5040 N.ar      1 GIL        -0.2640
     13 C13        33.7540    7.8660    8.8610 C.ar      1 GIL         0.1134
     14 O1         31.1110    5.9690   10.8000 O.3       1 GIL        -0.2483
     15 C14        33.2210    7.5600    7.5730 C.ar      1 GIL         0.1943
     16 C15        32.0640    6.7820    7.4350 C.ar      1 GIL         0.1981
     17 N4         34.9150    8.6590    8.9930 N.pl3     1 GIL        -0.3001
     18 O2         31.6580    6.5870    6.1180 O.3       1 GIL        -0.2416
     19 F1         33.4430    7.5470   11.2430 F         1 GIL        -0.1995
     20 F2         33.7990    8.0120    6.4460 F         1 GIL        -0.1994
     21 C21        30.5040    5.8680    5.8120 C.ar      1 GIL         0.1376
     22 C22        29.1640    6.3460    6.0660 C.ar      1 GIL         0.0497
     23 C23        28.0690    5.5240    5.6930 C.ar      1 GIL        -0.0348
     24 C24        28.2820    4.2470    5.0770 C.ar      1 GIL         0.0428
     25 C25        29.6110    3.8010    4.8450 C.ar      1 GIL        -0.0468
     26 C26        30.7120    4.6120    5.2110 C.ar      1 GIL        -0.0182
     27 C29        28.8980    7.6710    6.6990 C.2       1 GIL         0.0602
     28 O3         27.7760    7.7720    7.4540 O.co2     1 GIL        -0.5639
     29 O4         29.6420    8.5960    6.5840 O.co2     1 GIL        -0.5639
     30 C8         27.1610    3.3600    4.6600 C.2       1 GIL         0.1980
     31 C10        34.8640   10.0630    8.3770 C.3       1 GIL         0.0331
     32 C16        36.0810    8.0020    9.7040 C.3       1 GIL         0.0331
     33 C17        36.1830   10.6330    7.8180 C.3       1 GIL        -0.0426
     34 C18        34.1830   11.0540    9.3340 C.3       1 GIL        -0.0426
     35 C19        37.0650    7.4110    8.6860 C.3       1 GIL        -0.0426
     36 C20        36.7890    8.9140   10.7420 C.3       1 GIL        -0.0426
     37 O5         27.3300    2.2650    4.1320 O.2       1 GIL        -0.3895
     38 N5         25.9280    3.8400    4.8990 N.am      1 GIL        -0.2874
     39 C9         25.1320    4.3430    3.7770 C.3       1 GIL         0.0325
     40 C27        23.6330    4.5200    4.1010 C.3       1 GIL        -0.0266
     41 C28        23.2270    4.1350    5.5310 C.3       1 GIL        -0.0608
     42 C30        22.8140    3.7230    3.0820 C.3       1 GIL        -0.0608
     43 H1         28.3251    9.1247   14.0387 H         1 GIL         0.0529
     44 H2         28.3297    9.6073   11.5955 H         1 GIL         0.0591
     45 H3         29.6240    8.1510   10.0409 H         1 GIL         0.0553
     46 H4         30.9021    5.7057   13.3730 H         1 GIL         0.0553
     47 H5         30.2871    5.8116   16.8189 H         1 GIL         0.3181
     48 H6         30.8123    5.4143   15.1609 H         1 GIL         0.3181
     49 H7         28.4016    8.6781   15.8450 H         1 GIL         0.3181
     50 H8         28.9324    7.6442   17.1985 H         1 GIL         0.3181
     51 H9         27.0570    5.8665    5.8764 H         1 GIL         0.0679
     52 H10        29.7827    2.8345    4.3852 H         1 GIL         0.0664
     53 H11        31.7219    4.2636    5.0273 H         1 GIL         0.0575
     54 H12        34.2003    9.9709    7.5047 H         1 GIL         0.0546
     55 H13        35.6642    7.1577   10.2727 H         1 GIL         0.0546
     56 H14        36.0039   11.6386    7.4097 H         1 GIL         0.0251
     57 H15        36.5580    9.9749    7.0204 H         1 GIL         0.0251
     58 H16        36.9280   10.6923    8.6251 H         1 GIL         0.0251
     59 H17        34.1581   12.0518    8.8717 H         1 GIL         0.0251
     60 H18        34.7480   11.1006   10.2766 H         1 GIL         0.0251
     61 H19        33.1554   10.7190    9.5386 H         1 GIL         0.0251
     62 H20        37.9038    6.9388    9.2184 H         1 GIL         0.0251
     63 H21        37.4473    8.2129    8.0373 H         1 GIL         0.0251
     64 H22        36.5495    6.6575    8.0725 H         1 GIL         0.0251
     65 H23        37.6185    8.3627   11.2090 H         1 GIL         0.0251
     66 H24        36.0684    9.2168   11.5159 H         1 GIL         0.0251
     67 H25        37.1819    9.8085   10.2366 H         1 GIL         0.0251
     68 H26        25.5600    3.8534    5.8287 H         1 GIL         0.1841
     69 H27        25.2240    3.6331    2.9418 H         1 GIL         0.0522
     70 H28        25.5383    5.3195    3.4748 H         1 GIL         0.0522
     71 H29        23.3949    5.5866    3.9756 H         1 GIL         0.0315
     72 H30        22.1467    4.2959    5.6613 H         1 GIL         0.0233
     73 H31        23.7797    4.7581    6.2495 H         1 GIL         0.0233
     74 H32        23.4637    3.0752    5.7066 H         1 GIL         0.0233
     75 H33        23.1162    4.0098    2.0639 H         1 GIL         0.0233
     76 H34        21.7445    3.9391    3.2216 H         1 GIL         0.0233
     77 H35        22.9930    2.6476    3.2283 H         1 GIL         0.0233
@<TRIPOS>BOND
     1    1    2 ar 
     2    6    1 ar 
     3    1    7 1  
     4    3    2 ar 
     5    4    3 ar 
     6    5    4 ar 
     7    5    6 ar 
     8   14    5 1  
     9    7    8 ar 
    10    7    9 ar 
    11   10   11 ar 
    12   10   12 ar 
    13   10   14 1  
    14   11   13 ar 
    15   11   19 1  
    16   12   16 ar 
    17   13   15 ar 
    18   13   17 1  
    19   15   16 ar 
    20   15   20 1  
    21   16   18 1  
    22   17   31 1  
    23   17   32 1  
    24   18   21 1  
    25   21   22 ar 
    26   21   26 ar 
    27   22   23 ar 
    28   22   27 1  
    29   23   24 ar 
    30   24   25 ar 
    31   24   30 1  
    32   25   26 ar 
    33   27   28 ar 
    34   27   29 ar 
    35   30   37 2  
    36   30   38 am 
    37   31   33 1  
    38   31   34 1  
    39   32   35 1  
    40   32   36 1  
    41   38   39 1  
    42   39   40 1  
    43   40   41 1  
    44   40   42 1  
    45    2   43 1  
    46    3   44 1  
    47    4   45 1  
    48    6   46 1  
    49    8   47 1  
    50    8   48 1  
    51    9   49 1  
    52    9   50 1  
    53   23   51 1  
    54   25   52 1  
    55   26   53 1  
    56   31   54 1  
    57   32   55 1  
    58   33   56 1  
    59   33   57 1  
    60   33   58 1  
    61   34   59 1  
    62   34   60 1  
    63   34   61 1  
    64   35   62 1  
    65   35   63 1  
    66   35   64 1  
    67   36   65 1  
    68   36   66 1  
    69   36   67 1  
    70   38   68 1  
    71   39   69 1  
    72   39   70 1  
    73   40   71 1  
    74   41   72 1  
    75   41   73 1  
    76   41   74 1  
    77   42   75 1  
    78   42   76 1  
    79   42   77 1  
@<TRIPOS>SUBSTRUCTURE
     1 GIL         1

