### 
### Created by X-TOOL on Mon Sep 10 21:12:53 2018
### 

@<TRIPOS>MOLECULE
2c4g_ligand
   34    36     1     0     0
SMALL
GAST_HUCK


@<TRIPOS>ATOM
      1 O1        -19.1710  212.4470  104.5130 O.2       1 514        -0.3969
      2 C2        -13.8820  214.3400  102.4660 C.2       1 514         0.1030
      3 N3        -15.2750  213.9600  100.8790 N.pl3     1 514        -0.2432
      4 N4        -14.1680  214.3270  101.1020 N.2       1 514        -0.2403
      5 C5        -11.0000  215.1880  104.7670 C.ar      1 514         0.0549
      6 C6         -9.8100  214.7010  104.1120 C.ar      1 514        -0.0416
      7 C7        -10.8550  216.1190  105.8580 C.ar      1 514        -0.0416
      8 C8        -12.2840  214.7680  104.3640 C.2       1 514         0.2278
      9 C9         -8.5240  215.1310  104.5340 C.ar      1 514        -0.0562
     10 C10        -9.5650  216.5440  106.2740 C.ar      1 514        -0.0562
     11 O11       -13.0810  214.4310  105.2350 O.2       1 514        -0.3754
     12 N12       -12.5930  214.7480  103.0430 N.am      1 514        -0.2371
     13 C13        -8.3970  216.0490  105.6110 C.ar      1 514        -0.0576
     14 C14       -15.9330  213.6620  102.0700 C.2       1 514         0.0787
     15 C15       -15.1430  213.8710  103.0870 C.2       1 514         0.0146
     16 C16       -15.7080  213.6000  104.4140 C.3       1 514         0.0512
     17 N17       -17.0700  213.1670  103.9860 N.am      1 514        -0.2574
     18 C18       -17.2660  213.1820  102.5010 C.3       1 514         0.0895
     19 C19       -18.0430  212.7970  104.8820 C.2       1 514         0.1781
     20 C20       -17.7330  212.8240  106.3840 C.3       1 514         0.0261
     21 H1        -15.6892  213.8743   99.9398 H         1 514         0.2389
     22 H2         -9.8985  214.0001  103.2898 H         1 514         0.0669
     23 H3        -11.7359  216.4971  106.3641 H         1 514         0.0669
     24 H4         -7.6377  214.7582  104.0335 H         1 514         0.0629
     25 H5         -9.4649  217.2446  107.0951 H         1 514         0.0629
     26 H6        -11.8797  215.0368  102.4044 H         1 514         0.2192
     27 H7         -7.4140  216.3750  105.9311 H         1 514         0.0652
     28 H8        -15.7379  214.5010  105.0443 H         1 514         0.0576
     29 H9        -15.1652  212.8016  104.9411 H         1 514         0.0576
     30 H10       -17.4850  212.1782  102.1081 H         1 514         0.0708
     31 H11       -18.0658  213.8754  102.2019 H         1 514         0.0708
     32 H12       -16.6954  213.1551  106.5383 H         1 514         0.0467
     33 H13       -17.8622  211.8153  106.8033 H         1 514         0.0467
     34 H14       -18.4190  213.5210  106.8875 H         1 514         0.0467
@<TRIPOS>BOND
     1   19    1 2  
     2    2    4 2  
     3    2   12 1  
     4   15    2 1  
     5    3    4 1  
     6   14    3 1  
     7    5    6 ar 
     8    5    7 ar 
     9    8    5 1  
    10    6    9 ar 
    11    7   10 ar 
    12    8   11 2  
    13   12    8 am 
    14    9   13 ar 
    15   10   13 ar 
    16   14   15 2  
    17   18   14 1  
    18   16   15 1  
    19   17   16 1  
    20   17   18 1  
    21   17   19 am 
    22   19   20 1  
    23    3   21 1  
    24    6   22 1  
    25    7   23 1  
    26    9   24 1  
    27   10   25 1  
    28   12   26 1  
    29   13   27 1  
    30   16   28 1  
    31   16   29 1  
    32   18   30 1  
    33   18   31 1  
    34   20   32 1  
    35   20   33 1  
    36   20   34 1  
@<TRIPOS>SUBSTRUCTURE
     1 514         1

