### 
### Created by X-TOOL on Mon Sep 10 21:12:53 2018
### 

@<TRIPOS>MOLECULE
2c4v_ligand
   18    17     1     0     0
SMALL
GAST_HUCK


@<TRIPOS>ATOM
      1 C1         97.2030  -23.6670   85.1630 C.2       1 CIT         0.0371
      2 O1         98.4370  -23.6400   85.2660 O.co2     1 CIT        -0.5690
      3 O2         96.6470  -23.3400   84.0380 O.co2     1 CIT        -0.5690
      4 C2         96.3700  -24.0250   86.3660 C.3       1 CIT         0.0356
      5 C3         96.9930  -24.1460   87.7440 C.3       1 CIT         0.1328
      6 O7         95.8340  -24.5180   88.5930 O.3       1 CIT        -0.3818
      7 C4         97.7070  -22.8610   88.2730 C.3       1 CIT         0.0356
      8 C5         96.8220  -21.6300   88.4200 C.2       1 CIT         0.0371
      9 O3         96.4990  -20.9250   87.4240 O.co2     1 CIT        -0.5690
     10 O4         96.3250  -21.3820   89.5450 O.co2     1 CIT        -0.5690
     11 C6         97.9700  -25.3290   87.7970 C.2       1 CIT         0.0796
     12 O5         99.2030  -25.1580   88.1180 O.co2     1 CIT        -0.5449
     13 O6         97.5040  -26.4770   87.5650 O.co2     1 CIT        -0.5449
     14 H1         95.9069  -24.9983   86.1464 H         1 CIT         0.0452
     15 H2         95.5875  -23.2558   86.4438 H         1 CIT         0.0452
     16 H3         95.4653  -25.3367   88.2826 H         1 CIT         0.2091
     17 H4         98.5189  -22.6126   87.5736 H         1 CIT         0.0452
     18 H5         98.1320  -23.0922   89.2609 H         1 CIT         0.0452
@<TRIPOS>BOND
     1    1    2 ar 
     2    1    3 ar 
     3    1    4 1  
     4    4    5 1  
     5    5    6 1  
     6    5    7 1  
     7    5   11 1  
     8    7    8 1  
     9    8    9 ar 
    10    8   10 ar 
    11   11   12 ar 
    12   11   13 ar 
    13    4   14 1  
    14    4   15 1  
    15    6   16 1  
    16    7   17 1  
    17    7   18 1  
@<TRIPOS>SUBSTRUCTURE
     1 CIT         1

