### 
### Created by X-TOOL on Mon Sep 10 21:12:53 2018
### 

@<TRIPOS>MOLECULE
2c4w_ligand
   33    36     1     0     0
SMALL
GAST_HUCK


@<TRIPOS>ATOM
      1 O2         33.0870   57.8780  109.8870 O.2       1 GAJ        -0.1447
      2 S          31.6470   58.0050  110.2620 S.o2      1 GAJ         0.0939
      3 O1         31.1140   59.3340  109.8890 O.2       1 GAJ        -0.1447
      4 N4         30.6260   56.8700  109.5830 N.am      1 GAJ        -0.1341
      5 C14        30.8750   55.5660  109.7500 C.2       1 GAJ         0.2743
      6 N          31.7640   55.0150  110.5700 N.pl3     1 GAJ        -0.1396
      7 N1         31.5650   53.6740  110.3680 N.2       1 GAJ        -0.0865
      8 N2         30.6580   53.4780  109.4810 N.2       1 GAJ        -0.1709
      9 N3         30.2260   54.6860  109.0690 N.2       1 GAJ        -0.2274
     10 C1         31.4810   57.9970  111.9800 C.ar      1 GAJ         0.1109
     11 C          32.5500   58.4330  112.7610 C.ar      1 GAJ        -0.0232
     12 C2         30.2620   57.6820  112.5850 C.ar      1 GAJ        -0.0372
     13 C3         30.1160   57.7660  113.9630 C.ar      1 GAJ        -0.0188
     14 C4         31.1630   58.1830  114.7640 C.ar      1 GAJ         0.1407
     15 O7         30.9570   58.2930  116.1110 O.3       1 GAJ        -0.2442
     16 C6         31.9640   58.6750  116.9350 C.ar      1 GAJ         0.1405
     17 C8         31.7260   58.7760  118.3600 C.ar      1 GAJ        -0.0206
     18 C9         32.7230   59.1860  119.1770 C.ar      1 GAJ        -0.0644
     19 C10        33.9230   59.5620  118.7280 C.ar      1 GAJ        -0.0659
     20 C11        34.2860   59.4450  117.4360 C.ar      1 GAJ        -0.0504
     21 C12        33.2900   59.0270  116.4390 C.ar      1 GAJ         0.0658
     22 C13        33.5530   59.0050  114.9910 C.2       1 GAJ         0.1461
     23 C5         32.4440   58.5390  114.1350 C.ar      1 GAJ         0.0677
     24 O          34.6920   59.2830  114.5290 O.2       1 GAJ        -0.3892
     25 H1         29.8307   57.1646  109.0531 H         1 GAJ         0.2303
     26 H2         32.4343   55.4792  111.1994 H         1 GAJ         0.2649
     27 H3         33.4855   58.6948  112.2800 H         1 GAJ         0.0662
     28 H4         29.4232   57.3694  111.9736 H         1 GAJ         0.0648
     29 H5         29.1681   57.5010  114.4173 H         1 GAJ         0.0571
     30 H6         30.7544   58.5244  118.7695 H         1 GAJ         0.0570
     31 H7         32.5394   59.2105  120.2451 H         1 GAJ         0.0629
     32 H8         34.6343   59.9785  119.4321 H         1 GAJ         0.0546
     33 H9         35.3051   59.6575  117.1338 H         1 GAJ         0.0642
@<TRIPOS>BOND
     1    1    2 2  
     2    2    3 2  
     3    2    4 am 
     4    2   10 1  
     5    4    5 1  
     6    5    6 1  
     7    5    9 2  
     8    6    7 1  
     9    7    8 2  
    10    8    9 1  
    11   10   11 ar 
    12   10   12 ar 
    13   11   23 ar 
    14   12   13 ar 
    15   13   14 ar 
    16   14   15 1  
    17   14   23 ar 
    18   15   16 1  
    19   16   17 ar 
    20   16   21 ar 
    21   17   18 ar 
    22   18   19 ar 
    23   19   20 ar 
    24   20   21 ar 
    25   21   22 1  
    26   22   23 1  
    27   22   24 2  
    28    4   25 1  
    29    6   26 1  
    30   11   27 1  
    31   12   28 1  
    32   13   29 1  
    33   17   30 1  
    34   18   31 1  
    35   19   32 1  
    36   20   33 1  
@<TRIPOS>SUBSTRUCTURE
     1 GAJ         1

