### 
### Created by X-TOOL on Mon Sep 10 21:12:54 2018
### 

@<TRIPOS>MOLECULE
2c57_ligand
   21    21     1     0     0
SMALL
GAST_HUCK


@<TRIPOS>ATOM
      1 C2          1.2830   19.0930   65.7970 C.3       1 FA1        -0.0257
      2 C3          1.9790   18.5890   67.0520 C.3       1 FA1         0.0989
      3 O3          1.2850   19.0590   68.2040 O.3       1 FA1        -0.3849
      4 C4          1.9990   17.0420   67.0360 C.3       1 FA1         0.1558
      5 O4          2.9940   16.7650   68.0200 O.3       1 FA1        -0.3559
      6 C5          2.3060   16.4170   65.6770 C.2       1 FA1         0.0179
      7 C6          2.3730   17.1620   64.5820 C.2       1 FA1        -0.0502
      8 C           1.3230   18.9890   63.4400 C.2       1 FA1         0.0192
      9 O1          0.1260   19.3570   63.6490 O.co2     1 FA1        -0.5675
     10 O30         3.3630   19.4710   64.5890 O.3       1 FA1        -0.4422
     11 O2          1.8320   18.9590   62.2870 O.co2     1 FA1        -0.5675
     12 C1          2.1580   18.6510   64.6140 C.3       1 FA1         0.0728
     13 H1          1.2004   20.1896   65.8212 H         1 FA1         0.0171
     14 H2          0.2790   18.6513   65.7144 H         1 FA1         0.0171
     15 H3          3.0123   18.9655   67.0732 H         1 FA1         0.0667
     16 H4          1.7216   18.7429   68.9863 H         1 FA1         0.2104
     17 H5          1.0236   16.6542   67.3649 H         1 FA1         0.1059
     18 H6          2.7233   17.1304   68.8541 H         1 FA1         0.2180
     19 H7          2.4725   15.3431   65.6060 H         1 FA1         0.1561
     20 H8          2.5905   16.6810   63.6295 H         1 FA1         0.0503
     21 H9          3.8506   19.2912   63.7938 H         1 FA1         0.1879
@<TRIPOS>BOND
     1    1    2 1  
     2   12    1 1  
     3    2    3 1  
     4    2    4 1  
     5    4    5 1  
     6    6    4 1  
     7    7    6 2  
     8   12    7 1  
     9    8    9 ar 
    10    8   11 ar 
    11    8   12 1  
    12   12   10 1  
    13    1   13 1  
    14    1   14 1  
    15    2   15 1  
    16    3   16 1  
    17    4   17 1  
    18    5   18 1  
    19    6   19 1  
    20    7   20 1  
    21   10   21 1  
@<TRIPOS>SUBSTRUCTURE
     1 FA1         1

