### 
### Created by X-TOOL on Mon Sep 10 21:12:53 2018
### 

@<TRIPOS>MOLECULE
2c5n_ligand
   42    44     1     0     0
SMALL
GAST_HUCK


@<TRIPOS>ATOM
      1 C6          5.1880   51.1130    2.5540 C.ar      1 CK8         0.0021
      2 N1          3.9510   51.3930    2.9850 N.ar      1 CK8        -0.2659
      3 C2          3.0060   50.4210    2.8440 C.ar      1 CK8         0.1934
      4 N3          3.2850   49.2270    2.3180 N.ar      1 CK8        -0.2656
      5 C4          4.4950   48.8950    1.9130 C.ar      1 CK8         0.0421
      6 C5          5.5040   49.8490    2.0500 C.ar      1 CK8        -0.0295
      7 C5A         4.6830   47.6160    1.3910 C.2       1 CK8         0.0669
      8 C1A         6.0160   47.2080    0.9480 C.2       1 CK8         0.0145
      9 N2A         6.0560   45.9620    0.4590 N.2       1 CK8        -0.2960
     10 C3A         4.8430   45.4220    0.5520 C.2       1 CK8         0.0971
     11 S4A         3.5770   46.3600    1.1850 S.3       1 CK8        -0.0005
     12 C6A         7.2910   47.9770    0.9500 C.3       1 CK8        -0.0221
     13 C7A         4.6590   44.0250    0.0270 C.3       1 CK8         0.0113
     14 N7          1.7190   50.6810    3.1960 N.pl3     1 CK8        -0.2510
     15 C1B         0.5680   49.9500    3.1600 C.ar      1 CK8         0.0528
     16 C2B        -0.5470   50.6040    3.6600 C.ar      1 CK8        -0.0489
     17 C3B        -1.7950   50.0070    3.7280 C.ar      1 CK8        -0.0529
     18 C4B        -1.9570   48.7190    3.2620 C.ar      1 CK8         0.0289
     19 C5B        -0.8480   48.0450    2.7570 C.ar      1 CK8        -0.0529
     20 C6B         0.4150   48.6390    2.7210 C.ar      1 CK8        -0.0489
     21 N7B        -3.1910   48.1560    3.3380 N.pl3     1 CK8        -0.3208
     22 C8B        -3.4180   46.7970    2.8740 C.3       1 CK8         0.0130
     23 C9B        -4.3130   48.9080    3.8820 C.3       1 CK8         0.0130
     24 H1          5.9547   51.8781    2.5969 H         1 CK8         0.0852
     25 H2          6.5234   49.6116    1.7680 H         1 CK8         0.0601
     26 H3          8.0978   47.3502    0.5424 H         1 CK8         0.0414
     27 H4          7.5402   48.2712    1.9802 H         1 CK8         0.0414
     28 H5          7.1770   48.8776    0.3288 H         1 CK8         0.0414
     29 H6          5.6256   43.6353   -0.3249 H         1 CK8         0.0510
     30 H7          3.9431   44.0384   -0.8081 H         1 CK8         0.0510
     31 H8          4.2738   43.3793    0.8299 H         1 CK8         0.0510
     32 H9          1.5845   51.6316    3.5690 H         1 CK8         0.2143
     33 H10        -0.4380   51.6235    4.0119 H         1 CK8         0.0507
     34 H11        -2.6374   50.5476    4.1440 H         1 CK8         0.0490
     35 H12        -0.9682   47.0348    2.3828 H         1 CK8         0.0490
     36 H13         1.2699   48.0828    2.3537 H         1 CK8         0.0507
     37 H14        -4.4751   46.5310    3.0215 H         1 CK8         0.0473
     38 H15        -2.7825   46.1038    3.4445 H         1 CK8         0.0473
     39 H16        -3.1683   46.7280    1.8050 H         1 CK8         0.0473
     40 H17        -3.9715   49.9092    4.1837 H         1 CK8         0.0473
     41 H18        -4.7185   48.3797    4.7574 H         1 CK8         0.0473
     42 H19        -5.0965   49.0033    3.1158 H         1 CK8         0.0473
@<TRIPOS>BOND
     1    1    2 ar 
     2    1    6 ar 
     3    2    3 ar 
     4    3    4 ar 
     5    3   14 1  
     6    4    5 ar 
     7    5    6 ar 
     8    5    7 1  
     9    7    8 2  
    10    7   11 1  
    11    8    9 1  
    12    8   12 1  
    13    9   10 2  
    14   10   11 1  
    15   10   13 1  
    16   14   15 1  
    17   15   16 ar 
    18   15   20 ar 
    19   16   17 ar 
    20   17   18 ar 
    21   18   19 ar 
    22   18   21 1  
    23   19   20 ar 
    24   21   22 1  
    25   21   23 1  
    26    1   24 1  
    27    6   25 1  
    28   12   26 1  
    29   12   27 1  
    30   12   28 1  
    31   13   29 1  
    32   13   30 1  
    33   13   31 1  
    34   14   32 1  
    35   16   33 1  
    36   17   34 1  
    37   19   35 1  
    38   20   36 1  
    39   22   37 1  
    40   22   38 1  
    41   22   39 1  
    42   23   40 1  
    43   23   41 1  
    44   23   42 1  
@<TRIPOS>SUBSTRUCTURE
     1 CK8         1

