### 
### Created by X-TOOL on Mon Sep 10 21:12:54 2018
### 

@<TRIPOS>MOLECULE
2c5o_ligand
   24    25     1     0     0
SMALL
GAST_HUCK


@<TRIPOS>ATOM
      1 C7A         3.8840   44.5870    0.4060 C.3       1 CK2         0.0113
      2 C3A         4.1810   45.9910    0.8430 C.2       1 CK2         0.0971
      3 S4A         3.0160   46.8950    1.7010 S.3       1 CK2        -0.0005
      4 N2A         5.3820   46.5360    0.5910 N.2       1 CK2        -0.2960
      5 C1A         5.4570   47.7790    1.0930 C.2       1 CK2         0.0145
      6 C6A         6.7490   48.5050    0.8480 C.3       1 CK2        -0.0221
      7 C5A         4.1810   48.1750    1.7490 C.2       1 CK2         0.0667
      8 C4          3.9480   49.4090    2.3410 C.ar      1 CK2         0.0414
      9 N3          2.7730   49.6440    2.9390 N.ar      1 CK2        -0.2688
     10 C5          4.9380   50.3870    2.3380 C.ar      1 CK2        -0.0299
     11 C6          4.6570   51.6080    2.9440 C.ar      1 CK2         0.0014
     12 N1          3.4610   51.7910    3.5180 N.ar      1 CK2        -0.2690
     13 C2          2.5320   50.8280    3.5130 C.ar      1 CK2         0.1728
     14 N7          1.2670   51.0780    4.0680 N.pl3     1 CK2        -0.3056
     15 H1          4.7540   44.1775   -0.1282 H         1 CK2         0.0510
     16 H2          3.0105   44.5881   -0.2625 H         1 CK2         0.0510
     17 H3          3.6698   43.9659    1.2882 H         1 CK2         0.0510
     18 H4          6.6983   49.5064    1.3003 H         1 CK2         0.0414
     19 H5          6.9166   48.5999   -0.2350 H         1 CK2         0.0414
     20 H6          7.5782   47.9404    1.2993 H         1 CK2         0.0414
     21 H7          5.9014   50.2029    1.8764 H         1 CK2         0.0598
     22 H8          5.3966   52.4005    2.9513 H         1 CK2         0.0851
     23 H9          0.5488   50.3397    4.0663 H         1 CK2         0.1823
     24 H10         1.0570   51.9998    4.4769 H         1 CK2         0.1823
@<TRIPOS>BOND
     1    1    2 1  
     2    2    3 1  
     3    2    4 2  
     4    3    7 1  
     5    4    5 1  
     6    5    6 1  
     7    5    7 2  
     8    7    8 1  
     9    8    9 ar 
    10    8   10 ar 
    11    9   13 ar 
    12   10   11 ar 
    13   11   12 ar 
    14   12   13 ar 
    15   13   14 1  
    16    1   15 1  
    17    1   16 1  
    18    1   17 1  
    19    6   18 1  
    20    6   19 1  
    21    6   20 1  
    22   10   21 1  
    23   11   22 1  
    24   14   23 1  
    25   14   24 1  
@<TRIPOS>SUBSTRUCTURE
     1 CK2         1

