### 
### Created by X-TOOL on Mon Sep 10 21:12:54 2018
### 

@<TRIPOS>MOLECULE
2c5x_ligand
   43    46     1     0     0
SMALL
GAST_HUCK


@<TRIPOS>ATOM
      1 C           2.9360   44.8920   -0.8800 C.2       1 MTW         0.1300
      2 N1          2.4000   44.2510   -1.9140 N.2       1 MTW        -0.2869
      3 C1          2.6670   42.9480   -1.7540 C.2       1 MTW         0.0620
      4 N2          3.3730   42.7990   -0.6320 N.2       1 MTW        -0.1881
      5 N           3.5160   43.9300   -0.1580 N.pl3     1 MTW        -0.1662
      6 C2          4.1930   44.1690    1.1140 C.3       1 MTW         0.1120
      7 C3          4.9600   45.4890    1.1270 C.ar      1 MTW         0.0015
      8 C4          4.4220   46.6460    1.6680 C.ar      1 MTW        -0.0344
      9 C17         6.2790   45.5020    0.7040 C.ar      1 MTW        -0.0456
     10 C18         7.0340   46.6730    0.7560 C.ar      1 MTW        -0.0552
     11 C6          6.5060   47.8250    1.3200 C.ar      1 MTW        -0.0438
     12 C5          5.1810   47.8120    1.7290 C.ar      1 MTW         0.0251
     13 C7          4.6790   48.9720    2.3060 C.ar      1 MTW         0.1275
     14 N3          3.3690   49.0710    2.6160 N.ar      1 MTW        -0.1632
     15 C8          5.5630   49.9920    2.6510 C.ar      1 MTW         0.0599
     16 C9          4.9840   51.1000    3.2750 C.ar      1 MTW         0.1018
     17 N4          3.6860   51.1870    3.5420 N.ar      1 MTW        -0.1427
     18 C10         2.8660   50.1640    3.2260 C.ar      1 MTW         0.3647
     19 N5          1.5550   50.2690    3.4640 N.pl3     1 MTW        -0.1183
     20 C11         0.6240   49.3960    3.0440 C.ar      1 MTW         0.2521
     21 C14         0.9600   48.1570    2.5060 C.ar      1 MTW         0.1150
     22 C12        -0.7300   49.7290    3.1320 C.ar      1 MTW         0.0858
     23 C13        -1.7330   48.8480    2.7450 C.ar      1 MTW         0.0318
     24 C16        -1.3640   47.5970    2.2640 C.ar      1 MTW         0.0507
     25 C15        -0.0230   47.2390    2.1290 C.ar      1 MTW         0.1693
     26 N6          0.2910   46.0390    1.6070 N.2       1 MTW        -0.1922
     27 O2         -0.7240   45.2820    0.9320 O.2       1 MTW        -0.4836
     28 O1          1.6290   45.4930    1.6270 O.2       1 MTW        -0.4836
     29 H1          2.9083   45.9601   -0.6694 H         1 MTW         0.1363
     30 H2          2.3601   42.1472   -2.4252 H         1 MTW         0.0864
     31 H3          4.9011   43.3474    1.2970 H         1 MTW         0.0813
     32 H4          3.4405   44.1900    1.9160 H         1 MTW         0.0813
     33 H5          3.4058   46.6433    2.0454 H         1 MTW         0.0630
     34 H6          6.7297   44.5906    0.3280 H         1 MTW         0.0658
     35 H7          8.0403   46.6832    0.3530 H         1 MTW         0.0634
     36 H8          7.1146   48.7142    1.4382 H         1 MTW         0.0657
     37 H9          6.6263   49.9303    2.4493 H         1 MTW         0.1340
     38 H10         5.6250   51.9283    3.5546 H         1 MTW         0.1159
     39 H11         1.2341   51.0807    4.0108 H         1 MTW         0.3511
     40 H12         2.0050   47.8994    2.3771 H         1 MTW         0.1230
     41 H13        -1.0070   50.7049    3.5140 H         1 MTW         0.1192
     42 H14        -2.7774   49.1295    2.8165 H         1 MTW         0.0901
     43 H15        -2.1340   46.8856    1.9884 H         1 MTW         0.1380
@<TRIPOS>BOND
     1    1    2 2  
     2    1    5 1  
     3    2    3 1  
     4    3    4 2  
     5    4    5 1  
     6    5    6 1  
     7    6    7 1  
     8    7    8 ar 
     9    7    9 ar 
    10    8   12 ar 
    11    9   10 ar 
    12   10   11 ar 
    13   11   12 ar 
    14   12   13 1  
    15   13   14 ar 
    16   13   15 ar 
    17   14   18 ar 
    18   15   16 ar 
    19   16   17 ar 
    20   17   18 ar 
    21   18   19 1  
    22   19   20 1  
    23   20   21 ar 
    24   20   22 ar 
    25   21   25 ar 
    26   22   23 ar 
    27   23   24 ar 
    28   24   25 ar 
    29   25   26 1  
    30   26   27 2  
    31   26   28 2  
    32    1   29 1  
    33    3   30 1  
    34    6   31 1  
    35    6   32 1  
    36    8   33 1  
    37    9   34 1  
    38   10   35 1  
    39   11   36 1  
    40   15   37 1  
    41   16   38 1  
    42   19   39 1  
    43   21   40 1  
    44   22   41 1  
    45   23   42 1  
    46   24   43 1  
@<TRIPOS>SUBSTRUCTURE
     1 MTW         1

