### 
### Created by X-TOOL on Mon Sep 10 21:12:53 2018
### 

@<TRIPOS>MOLECULE
2c5y_ligand
   43    46     1     0     0
SMALL
GAST_HUCK


@<TRIPOS>ATOM
      1 C          27.3170   24.7460   25.0060 C.2       1 MTW         0.1300
      2 N1         28.1710   23.8510   25.4950 N.2       1 MTW        -0.2869
      3 C1         29.3960   24.3630   25.3530 C.2       1 MTW         0.0620
      4 N2         29.2690   25.5500   24.7660 N.2       1 MTW        -0.1881
      5 N          28.0710   25.7450   24.5510 N.pl3     1 MTW        -0.1662
      6 C2         27.5270   26.9730   23.9470 C.3       1 MTW         0.1120
      7 C3         27.8720   28.1490   24.8670 C.ar      1 MTW         0.0015
      8 C4         27.0430   28.6400   25.8710 C.ar      1 MTW        -0.0344
      9 C17        29.1360   28.7020   24.7240 C.ar      1 MTW        -0.0456
     10 C18        29.5460   29.7810   25.4940 C.ar      1 MTW        -0.0552
     11 C6         28.6960   30.2900   26.4670 C.ar      1 MTW        -0.0438
     12 C5         27.4590   29.6960   26.6770 C.ar      1 MTW         0.0251
     13 C7         26.6340   30.2650   27.6430 C.ar      1 MTW         0.1275
     14 N3         25.6740   29.5350   28.2430 N.ar      1 MTW        -0.1632
     15 C8         26.7960   31.6240   27.9280 C.ar      1 MTW         0.0599
     16 C9         25.8880   32.1930   28.8060 C.ar      1 MTW         0.1018
     17 N4         24.9650   31.4110   29.3600 N.ar      1 MTW        -0.1427
     18 C10        24.8130   30.0970   29.1150 C.ar      1 MTW         0.3647
     19 N5         23.8420   29.3780   29.6980 N.pl3     1 MTW        -0.1183
     20 C11        23.5140   28.1070   29.4030 C.ar      1 MTW         0.2521
     21 C14        24.2540   27.2850   28.5510 C.ar      1 MTW         0.1150
     22 C12        22.3480   27.5550   29.9320 C.ar      1 MTW         0.0858
     23 C13        21.9220   26.2700   29.6070 C.ar      1 MTW         0.0318
     24 C16        22.6820   25.4680   28.7580 C.ar      1 MTW         0.0507
     25 C15        23.8590   25.9830   28.2190 C.ar      1 MTW         0.1693
     26 N6         24.6680   25.1940   27.4930 N.2       1 MTW        -0.1922
     27 O2         24.5510   24.8250   26.1040 O.2       1 MTW        -0.4836
     28 O1         25.8130   24.7340   28.1950 O.2       1 MTW        -0.4836
     29 H1         26.2305   24.6765   24.9827 H         1 MTW         0.1363
     30 H2         30.3292   23.8942   25.6616 H         1 MTW         0.0864
     31 H3         26.4351   26.8867   23.8458 H         1 MTW         0.0813
     32 H4         27.9759   27.1313   22.9553 H         1 MTW         0.0813
     33 H5         26.0660   28.1969   26.0266 H         1 MTW         0.0630
     34 H6         29.8188   28.2818   23.9944 H         1 MTW         0.0658
     35 H7         30.5230   30.2235   25.3371 H         1 MTW         0.0634
     36 H8         28.9968   31.1466   27.0594 H         1 MTW         0.0657
     37 H9         27.5951   32.2056   27.4826 H         1 MTW         0.1340
     38 H10        25.9286   33.2514   29.0365 H         1 MTW         0.1159
     39 H11        23.2977   29.8415   30.4395 H         1 MTW         0.3511
     40 H12        25.1743   27.6713   28.1281 H         1 MTW         0.1230
     41 H13        21.7534   28.1460   30.6192 H         1 MTW         0.1192
     42 H14        20.9929   25.8909   30.0171 H         1 MTW         0.0901
     43 H15        22.3626   24.4597   28.5207 H         1 MTW         0.1380
@<TRIPOS>BOND
     1    1    2 2  
     2    1    5 1  
     3    2    3 1  
     4    3    4 2  
     5    4    5 1  
     6    5    6 1  
     7    6    7 1  
     8    7    8 ar 
     9    7    9 ar 
    10    8   12 ar 
    11    9   10 ar 
    12   10   11 ar 
    13   11   12 ar 
    14   12   13 1  
    15   13   14 ar 
    16   13   15 ar 
    17   14   18 ar 
    18   15   16 ar 
    19   16   17 ar 
    20   17   18 ar 
    21   18   19 1  
    22   19   20 1  
    23   20   21 ar 
    24   20   22 ar 
    25   21   25 ar 
    26   22   23 ar 
    27   23   24 ar 
    28   24   25 ar 
    29   25   26 1  
    30   26   27 2  
    31   26   28 2  
    32    1   29 1  
    33    3   30 1  
    34    6   31 1  
    35    6   32 1  
    36    8   33 1  
    37    9   34 1  
    38   10   35 1  
    39   11   36 1  
    40   15   37 1  
    41   16   38 1  
    42   19   39 1  
    43   21   40 1  
    44   22   41 1  
    45   23   42 1  
    46   24   43 1  
@<TRIPOS>SUBSTRUCTURE
     1 MTW         1

