### 
### Created by X-TOOL on Mon Sep 10 21:12:52 2018
### 

@<TRIPOS>MOLECULE
2c68_ligand
   38    41     1     0     0
SMALL
GAST_HUCK


@<TRIPOS>ATOM
      1 BR1        14.3620   -8.2300    5.3870 Br        1 CT6        -0.0487
      2 C1         14.0730   -7.4410    7.0900 C.ar      1 CT6         0.0179
      3 C2         13.6340   -8.2290    8.1490 C.ar      1 CT6        -0.0376
      4 C3         13.4350   -7.6580    9.4290 C.ar      1 CT6         0.0036
      5 C4         13.6910   -6.2870    9.6370 C.ar      1 CT6        -0.0447
      6 C5         14.1590   -5.4950    8.5720 C.ar      1 CT6        -0.0542
      7 C6         14.3450   -6.0700    7.2970 C.ar      1 CT6        -0.0484
      8 C7         12.9620   -8.5150   10.5510 C.2       1 CT6         0.0286
      9 C8         11.7680   -9.2440   10.4280 C.2       1 CT6         0.0223
     10 C9         11.3510  -10.0490   11.4920 C.2       1 CT6         0.2224
     11 N2         12.1300  -10.1310   12.5920 N.pl3     1 CT6        -0.1143
     12 N3         11.9180  -10.8030   13.7110 N.2       1 CT6        -0.2151
     13 C12        12.9550  -10.5240   14.5670 C.2       1 CT6        -0.0227
     14 C10        13.2390   -9.4030   12.7030 C.2       1 CT6         0.1453
     15 C11        13.8010   -9.6370   13.9220 C.2       1 CT6        -0.0450
     16 N1         13.6800   -8.6010   11.6850 N.2       1 CT6        -0.2937
     17 N4         10.1510  -10.8060   11.4040 N.pl3     1 CT6        -0.2574
     18 C13         9.0250  -10.3210   10.5990 C.3       1 CT6         0.0765
     19 C14         8.7780  -11.2930    9.4560 C.ar      1 CT6         0.0002
     20 C15         9.0010  -12.6530    9.6390 C.ar      1 CT6        -0.0304
     21 C16         8.8010  -13.5380    8.5750 C.ar      1 CT6         0.0031
     22 N5          8.3780  -13.0750    7.3670 N.ar      1 CT6        -0.3066
     23 C17         8.1380  -11.7330    7.1800 C.ar      1 CT6         0.0031
     24 C18         8.3390  -10.8290    8.2230 C.ar      1 CT6        -0.0304
     25 H1         13.4435   -9.2847    7.9934 H         1 CT6         0.0690
     26 H2         13.5280   -5.8449   10.6132 H         1 CT6         0.0685
     27 H3         14.3762   -4.4449    8.7309 H         1 CT6         0.0635
     28 H4         14.6974   -5.4585    6.4743 H         1 CT6         0.0675
     29 H5         11.1753   -9.1830    9.5165 H         1 CT6         0.0415
     30 H6         13.0879  -10.9267   15.5700 H         1 CT6         0.0631
     31 H7         14.7262   -9.2133   14.3099 H         1 CT6         0.0196
     32 H8         10.0718  -11.7004   11.9086 H         1 CT6         0.1973
     33 H9          9.2634   -9.3270   10.1926 H         1 CT6         0.0725
     34 H10         8.1245  -10.2541   11.2271 H         1 CT6         0.0725
     35 H11         9.3286  -13.0259   10.6027 H         1 CT6         0.0652
     36 H12         8.9837  -14.5976    8.7129 H         1 CT6         0.0803
     37 H13         7.7909  -11.3765    6.2170 H         1 CT6         0.0803
     38 H14         8.1538   -9.7716    8.0721 H         1 CT6         0.0652
@<TRIPOS>BOND
     1    1    2 1  
     2    2    3 ar 
     3    2    7 ar 
     4    3    4 ar 
     5    4    5 ar 
     6    4    8 1  
     7    5    6 ar 
     8    6    7 ar 
     9    8    9 1  
    10    8   16 2  
    11    9   10 2  
    12   10   11 1  
    13   10   17 1  
    14   11   12 1  
    15   11   14 1  
    16   12   13 2  
    17   13   15 1  
    18   14   15 2  
    19   14   16 1  
    20   17   18 1  
    21   18   19 1  
    22   19   20 ar 
    23   19   24 ar 
    24   20   21 ar 
    25   21   22 ar 
    26   22   23 ar 
    27   23   24 ar 
    28    3   25 1  
    29    5   26 1  
    30    6   27 1  
    31    7   28 1  
    32    9   29 1  
    33   13   30 1  
    34   15   31 1  
    35   17   32 1  
    36   18   33 1  
    37   18   34 1  
    38   20   35 1  
    39   21   36 1  
    40   23   37 1  
    41   24   38 1  
@<TRIPOS>SUBSTRUCTURE
     1 CT6         1

