### 
### Created by X-TOOL on Mon Sep 10 21:12:53 2018
### 

@<TRIPOS>MOLECULE
2c69_ligand
   38    41     1     0     0
SMALL
GAST_HUCK


@<TRIPOS>ATOM
      1 BR1        14.4220   -8.1890    5.7560 Br        1 CT8        -0.0460
      2 C1         14.1990   -7.4730    7.4940 C.ar      1 CT8         0.0254
      3 C2         13.7090   -8.2870    8.5090 C.ar      1 CT8        -0.0284
      4 C3         13.5350   -7.7790    9.7960 C.ar      1 CT8         0.0299
      5 C4         13.8830   -6.4340   10.0800 C.ar      1 CT8        -0.0356
      6 C5         14.3900   -5.6150    9.0570 C.ar      1 CT8        -0.0468
      7 C6         14.5450   -6.1380    7.7610 C.ar      1 CT8        -0.0409
      8 C7         13.0200   -8.6650   10.8840 C.ar      1 CT8         0.1204
      9 C8         11.8400   -9.4090   10.7120 C.ar      1 CT8         0.0651
     10 C9         11.3900  -10.2060   11.7890 C.ar      1 CT8         0.2221
     11 N2         12.1240  -10.2480   12.9230 N.ar      1 CT8        -0.1232
     12 N3         11.9010  -10.9240   14.0230 N.pl3     1 CT8        -0.1490
     13 C12        12.8970  -10.6180   14.8970 C.2       1 CT8         0.1720
     14 C10        13.2390   -9.5560   13.0510 C.ar      1 CT8         0.2472
     15 N1         13.6920   -8.7410   12.0680 N.ar      1 CT8        -0.1845
     16 N4         10.1940  -10.9470   11.6970 N.pl3     1 CT8        -0.2467
     17 C13         9.0920  -10.4610   10.8780 C.3       1 CT8         0.0904
     18 C14         8.8270  -11.4590    9.7790 C.ar      1 CT8         0.0049
     19 C15         8.8290  -12.8200   10.0590 C.ar      1 CT8        -0.0299
     20 C16         8.6090  -13.7350    9.0400 C.ar      1 CT8         0.0031
     21 N5          8.3860  -13.3020    7.7770 N.ar      1 CT8        -0.3066
     22 C17         8.3650  -11.9660    7.4890 C.ar      1 CT8         0.0031
     23 C18         8.6000  -11.0270    8.4870 C.ar      1 CT8        -0.0299
     24 N11        13.7440   -9.7650   14.2660 N.2       1 CT8        -0.2160
     25 H1         13.4611   -9.3212    8.2990 H         1 CT8         0.0730
     26 H2         13.7584   -6.0394   11.0819 H         1 CT8         0.0723
     27 H3         14.6600   -4.5861    9.2657 H         1 CT8         0.0660
     28 H4         14.9321   -5.5100    6.9667 H         1 CT8         0.0738
     29 H5         11.2900   -9.3725    9.7786 H         1 CT8         0.0852
     30 H6         11.1160  -11.5685   14.1942 H         1 CT8         0.2998
     31 H7         12.9968  -10.9891   15.9160 H         1 CT8         0.1546
     32 H8         10.0993  -11.8348   12.2106 H         1 CT8         0.2280
     33 H9          9.3589   -9.4888   10.4381 H         1 CT8         0.0782
     34 H10         8.1915  -10.3475   11.4994 H         1 CT8         0.0782
     35 H11         9.0021  -13.1660   11.0716 H         1 CT8         0.0652
     36 H12         8.6157  -14.7974    9.2552 H         1 CT8         0.0803
     37 H13         8.1638  -11.6365    6.4761 H         1 CT8         0.0803
     38 H14         8.6050   -9.9684    8.2538 H         1 CT8         0.0652
@<TRIPOS>BOND
     1    1    2 1  
     2    2    3 ar 
     3    2    7 ar 
     4    3    4 ar 
     5    4    5 ar 
     6    4    8 1  
     7    5    6 ar 
     8    6    7 ar 
     9    8    9 ar 
    10    8   15 ar 
    11    9   10 ar 
    12   10   11 ar 
    13   10   16 1  
    14   11   12 1  
    15   11   14 ar 
    16   12   13 1  
    17   13   24 2  
    18   14   15 ar 
    19   14   24 1  
    20   16   17 1  
    21   17   18 1  
    22   18   19 ar 
    23   18   23 ar 
    24   19   20 ar 
    25   20   21 ar 
    26   21   22 ar 
    27   22   23 ar 
    28    3   25 1  
    29    5   26 1  
    30    6   27 1  
    31    7   28 1  
    32    9   29 1  
    33   12   30 1  
    34   13   31 1  
    35   16   32 1  
    36   17   33 1  
    37   17   34 1  
    38   19   35 1  
    39   20   36 1  
    40   22   37 1  
    41   23   38 1  
@<TRIPOS>SUBSTRUCTURE
     1 CT8         1

