### 
### Created by X-TOOL on Mon Sep 10 21:12:54 2018
### 

@<TRIPOS>MOLECULE
2c6e_ligand
   71    75     1     0     0
SMALL
GAST_HUCK


@<TRIPOS>ATOM
      1 C1         21.3640   83.8490   79.7510 C.3       1 HPM        -0.0318
      2 C2         21.2040   82.4820   80.4880 C.3       1 HPM        -0.0123
      3 C3         20.0890   81.5940   79.8480 C.3       1 HPM        -0.0434
      4 C4         20.1710   81.5300   78.2860 C.3       1 HPM        -0.0123
      5 C5         20.4030   82.9310   77.6370 C.3       1 HPM        -0.0318
      6 N6         21.5620   83.6780   78.2680 N.4       1 HPM         0.2371
      7 C7         21.8440   85.0070   77.5900 C.3       1 HPM        -0.0027
      8 C8         22.0910   84.9460   76.0620 C.3       1 HPM         0.1224
      9 C9         21.7030   86.2170   75.3010 C.3       1 HPM         0.1019
     10 O10        22.1860   86.1270   73.9300 O.3       1 HPM        -0.3102
     11 C11        22.2940   87.2270   73.0660 C.ar      1 HPM         0.1327
     12 C12        22.7810   87.0730   71.7280 C.ar      1 HPM         0.1318
     13 C13        22.8810   88.1970   70.8700 C.ar      1 HPM        -0.0172
     14 C14        22.5060   89.4830   71.3120 C.ar      1 HPM         0.0391
     15 C15        22.0050   89.6510   72.6950 C.ar      1 HPM         0.0264
     16 C16        21.9110   88.5160   73.5370 C.ar      1 HPM        -0.0169
     17 N17        21.6340   90.8720   73.1620 N.ar      1 HPM        -0.3055
     18 C18        21.7330   91.9110   72.3470 C.ar      1 HPM         0.0524
     19 N19        22.1690   91.8770   71.0880 N.ar      1 HPM        -0.2612
     20 C20        22.5600   90.6930   70.5390 C.ar      1 HPM         0.1501
     21 N21        23.0250   90.7040   69.1480 N.pl3     1 HPM        -0.2457
     22 C22        23.0010   91.7570   68.1800 C.ar      1 HPM         0.1053
     23 C23        24.0610   91.9230   67.2460 C.ar      1 HPM         0.0374
     24 N24        24.0420   92.9330   66.3670 N.ar      1 HPM        -0.2619
     25 C25        22.9920   93.7830   66.3940 C.ar      1 HPM         0.2107
     26 N26        21.9550   93.7080   67.2140 N.ar      1 HPM        -0.2619
     27 C27        21.9360   92.7240   68.0970 C.ar      1 HPM         0.0374
     28 N28        23.0430   94.8760   65.4670 N.am      1 HPM        -0.2032
     29 C29        23.6960   95.2140   64.3460 C.2       1 HPM         0.2388
     30 C30        23.3520   96.5850   63.7860 C.ar      1 HPM         0.0572
     31 C31        22.4050   97.4700   64.4110 C.ar      1 HPM        -0.0414
     32 C32        22.1220   98.7420   63.8600 C.ar      1 HPM        -0.0562
     33 C33        22.7760   99.1530   62.6760 C.ar      1 HPM        -0.0575
     34 C34        23.7100   98.3030   62.0420 C.ar      1 HPM        -0.0562
     35 C35        23.9980   97.0350   62.5890 C.ar      1 HPM        -0.0414
     36 O36        24.5310   94.4480   63.8240 O.2       1 HPM        -0.3701
     37 O37        23.1700   85.8270   71.2400 O.3       1 HPM        -0.3199
     38 C38        22.6790   85.3750   69.9510 C.3       1 HPM         0.0583
     39 O39        23.4660   84.6770   75.8200 O.3       1 HPM        -0.3838
     40 H1         22.2364   84.3749   80.1661 H         1 HPM         0.0814
     41 H2         20.4586   84.4504   79.9201 H         1 HPM         0.0814
     42 H3         20.9437   82.6745   81.5393 H         1 HPM         0.0317
     43 H4         22.1598   81.9397   80.4403 H         1 HPM         0.0317
     44 H5         19.1090   82.0065   80.1298 H         1 HPM         0.0269
     45 H6         20.1848   80.5726   80.2450 H         1 HPM         0.0269
     46 H7         19.2277   81.1156   77.9007 H         1 HPM         0.0317
     47 H8         21.0040   80.8693   78.0041 H         1 HPM         0.0317
     48 H9         19.4891   83.5313   77.7572 H         1 HPM         0.0814
     49 H10        20.6132   82.7934   76.5661 H         1 HPM         0.0814
     50 H11        22.3821   83.1056   78.1419 H         1 HPM         0.2034
     51 H12        22.7387   85.4420   78.0592 H         1 HPM         0.0841
     52 H13        20.9807   85.6655   77.7661 H         1 HPM         0.0841
     53 H14        21.4901   84.1170   75.6599 H         1 HPM         0.0674
     54 H15        22.1548   87.0913   75.7925 H         1 HPM         0.0643
     55 H16        20.6081   86.3231   75.2980 H         1 HPM         0.0643
     56 H17        23.2510   88.0663   69.8595 H         1 HPM         0.0546
     57 H18        21.5437   88.6292   74.5506 H         1 HPM         0.0496
     58 H19        21.4324   92.8759   72.7391 H         1 HPM         0.1017
     59 H20        23.4313   89.8172   68.8173 H         1 HPM         0.2206
     60 H21        24.8912   91.2260   67.2458 H         1 HPM         0.0820
     61 H22        21.0960   92.6425   68.7773 H         1 HPM         0.0820
     62 H23        22.4045   95.5973   65.7354 H         1 HPM         0.2336
     63 H24        21.9006   97.1572   65.3181 H         1 HPM         0.0669
     64 H25        21.4072   99.3982   64.3433 H         1 HPM         0.0629
     65 H26        22.5595  100.1267   62.2516 H         1 HPM         0.0653
     66 H27        24.2060   98.6259   61.1338 H         1 HPM         0.0629
     67 H28        24.7184   96.3919   62.0966 H         1 HPM         0.0669
     68 H29        23.0880   84.3776   69.7321 H         1 HPM         0.0575
     69 H30        22.9965   86.0810   69.1695 H         1 HPM         0.0575
     70 H31        21.5805   85.3237   69.9745 H         1 HPM         0.0575
     71 H32        23.6040   84.5525   74.8884 H         1 HPM         0.2101
@<TRIPOS>BOND
     1    1    2 1  
     2    1    6 1  
     3    2    3 1  
     4    3    4 1  
     5    4    5 1  
     6    5    6 1  
     7    6    7 1  
     8    7    8 1  
     9    8    9 1  
    10    8   39 1  
    11    9   10 1  
    12   10   11 1  
    13   11   12 ar 
    14   11   16 ar 
    15   12   13 ar 
    16   12   37 1  
    17   13   14 ar 
    18   14   15 ar 
    19   14   20 ar 
    20   15   16 ar 
    21   15   17 ar 
    22   17   18 ar 
    23   18   19 ar 
    24   19   20 ar 
    25   20   21 1  
    26   21   22 1  
    27   22   23 ar 
    28   22   27 ar 
    29   23   24 ar 
    30   24   25 ar 
    31   25   26 ar 
    32   25   28 1  
    33   26   27 ar 
    34   28   29 am 
    35   29   30 1  
    36   29   36 2  
    37   30   31 ar 
    38   30   35 ar 
    39   31   32 ar 
    40   32   33 ar 
    41   33   34 ar 
    42   34   35 ar 
    43   37   38 1  
    44    1   40 1  
    45    1   41 1  
    46    2   42 1  
    47    2   43 1  
    48    3   44 1  
    49    3   45 1  
    50    4   46 1  
    51    4   47 1  
    52    5   48 1  
    53    5   49 1  
    54    6   50 1  
    55    7   51 1  
    56    7   52 1  
    57    8   53 1  
    58    9   54 1  
    59    9   55 1  
    60   13   56 1  
    61   16   57 1  
    62   18   58 1  
    63   21   59 1  
    64   23   60 1  
    65   27   61 1  
    66   28   62 1  
    67   31   63 1  
    68   32   64 1  
    69   33   65 1  
    70   34   66 1  
    71   35   67 1  
    72   38   68 1  
    73   38   69 1  
    74   38   70 1  
    75   39   71 1  
@<TRIPOS>SUBSTRUCTURE
     1 HPM         1

