### 
### Created by X-TOOL on Mon Sep 10 21:12:54 2018
### 

@<TRIPOS>MOLECULE
2c6g_ligand
   18    17     1     0     0
SMALL
GAST_HUCK


@<TRIPOS>ATOM
      1 N          16.5860   45.1380   43.2530 N.4       1 GLU         0.2328
      2 CA         16.0730   44.5800   41.9820 C.3       1 GLU         0.0298
      3 C          17.1630   44.7030   40.9110 C.2       1 GLU         0.0845
      4 O          18.0380   45.5600   41.1360 O.co2     1 GLU        -0.5643
      5 CB         14.8300   45.3100   41.4900 C.3       1 GLU         0.0139
      6 CG         15.1460   46.7700   41.1330 C.3       1 GLU         0.0069
      7 CD         13.9760   47.5390   40.5540 C.2       1 GLU         0.0351
      8 OE1        13.0750   46.9210   39.9240 O.co2     1 GLU        -0.5690
      9 OE2        13.9820   48.7750   40.7490 O.co2     1 GLU        -0.5690
     10 OXT        17.0450   43.9180   39.9610 O.co2     1 GLU        -0.5643
     11 H1         15.8759   45.0617   43.9643 H         1 GLU         0.2010
     12 H2         16.8267   46.1079   43.1213 H         1 GLU         0.2010
     13 H3         17.4048   44.6245   43.5392 H         1 GLU         0.2010
     14 H4         15.8252   43.5193   42.1353 H         1 GLU         0.1025
     15 H5         14.0666   45.2918   42.2817 H         1 GLU         0.0356
     16 H6         14.4437   44.7980   40.5963 H         1 GLU         0.0356
     17 H7         15.9608   46.7751   40.3940 H         1 GLU         0.0433
     18 H8         15.4771   47.2841   42.0474 H         1 GLU         0.0433
@<TRIPOS>BOND
     1    1    2 1  
     2    2    3 1  
     3    2    5 1  
     4    3    4 ar 
     5    3   10 ar 
     6    5    6 1  
     7    6    7 1  
     8    7    8 ar 
     9    7    9 ar 
    10    1   11 1  
    11    1   12 1  
    12    1   13 1  
    13    2   14 1  
    14    5   15 1  
    15    5   16 1  
    16    6   17 1  
    17    6   18 1  
@<TRIPOS>SUBSTRUCTURE
     1 GLU         1

