### 
### Created by X-TOOL on Mon Sep 10 21:12:53 2018
### 

@<TRIPOS>MOLECULE
2c6i_ligand
   50    53     1     0     0
SMALL
GAST_HUCK


@<TRIPOS>ATOM
      1 O3          7.8650   26.0800    8.2840 O.2       1 DT1        -0.1519
      2 S1          6.6910   25.5750    7.5540 S.o2      1 DT1         0.0609
      3 O2          7.1400   25.2340    6.2070 O.2       1 DT1        -0.1519
      4 N6          6.0630   24.3420    8.3670 N.am      1 DT1        -0.2621
      5 C16         5.5300   26.8220    7.3390 C.ar      1 DT1         0.0967
      6 C15         5.3050   27.3410    6.0700 C.ar      1 DT1        -0.0443
      7 C17         4.8320   27.2350    8.4800 C.ar      1 DT1        -0.0443
      8 C18         3.9010   28.2530    8.2970 C.ar      1 DT1        -0.0351
      9 C14         4.3590   28.3610    5.8990 C.ar      1 DT1        -0.0351
     10 C13         3.6510   28.8130    7.0250 C.ar      1 DT1         0.0716
     11 N5          2.7320   29.8180    6.8610 N.pl3     1 DT1        -0.2227
     12 C9          1.6300   30.0300    7.6560 C.2       1 DT1         0.2441
     13 N2          1.0380   31.2550    7.7170 N.pl3     1 DT1        -0.0870
     14 C10        -0.0430   31.5170    8.4690 C.2       1 DT1         0.2084
     15 N1         -0.6290   30.5620    9.2090 N.2       1 DT1        -0.2598
     16 N4         -0.3670   32.8210    8.3680 N.2       1 DT1        -0.3065
     17 C11         0.5600   33.3420    7.5250 C.2       1 DT1         0.0404
     18 N3          1.4030   32.3730    7.1160 N.2       1 DT1        -0.1851
     19 C8          1.0180   28.9900    8.3690 C.2       1 DT1         0.0582
     20 C7         -0.0980   29.2930    9.1560 C.2       1 DT1         0.1503
     21 C20        -0.3950   28.4590   11.2650 C.3       1 DT1         0.0806
     22 O1         -0.6940   28.3000    9.8760 O.3       1 DT1        -0.2938
     23 C1         -0.6000   27.1080   11.9700 C.3       1 DT1        -0.0121
     24 C2         -1.7920   26.2940   11.4500 C.3       1 DT1        -0.0477
     25 C3         -1.8410   24.9440   12.1760 C.3       1 DT1        -0.0527
     26 C4         -1.9490   25.1650   13.6910 C.3       1 DT1        -0.0530
     27 C5         -0.7450   25.9710   14.1840 C.3       1 DT1        -0.0527
     28 C6         -0.7370   27.3270   13.4790 C.3       1 DT1        -0.0477
     29 H1          5.7272   24.4769    9.2992 H         1 DT1         0.1633
     30 H2          6.0075   23.4388    7.9414 H         1 DT1         0.1633
     31 H3          5.8570   26.9599    5.2185 H         1 DT1         0.0608
     32 H4          5.0069   26.7870    9.4515 H         1 DT1         0.0608
     33 H5          3.3527   28.6263    9.1544 H         1 DT1         0.0541
     34 H6          4.1779   28.7911    4.9206 H         1 DT1         0.0541
     35 H7          2.8797   30.4687    6.0763 H         1 DT1         0.2261
     36 H8          0.6147   34.3871    7.2238 H         1 DT1         0.0847
     37 H9          1.4014   27.9723    8.3118 H         1 DT1         0.0421
     38 H10        -1.0661   29.2116   11.7045 H         1 DT1         0.0629
     39 H11         0.6490   28.7843   11.3843 H         1 DT1         0.0629
     40 H12         0.3048   26.5081   11.7926 H         1 DT1         0.0327
     41 H13        -1.6780   26.1256   10.3690 H         1 DT1         0.0269
     42 H14        -2.7243   26.8465   11.6388 H         1 DT1         0.0269
     43 H15        -0.9238   24.3783   11.9551 H         1 DT1         0.0265
     44 H16        -2.7156   24.3749   11.8279 H         1 DT1         0.0265
     45 H17        -1.9703   24.1910   14.2016 H         1 DT1         0.0265
     46 H18        -2.8741   25.7166   13.9147 H         1 DT1         0.0265
     47 H19         0.1832   25.4283   13.9518 H         1 DT1         0.0265
     48 H20        -0.8203   26.1202   15.2712 H         1 DT1         0.0265
     49 H21        -1.6774   27.8571   13.6901 H         1 DT1         0.0269
     50 H22         0.1111   27.9258   13.8425 H         1 DT1         0.0269
@<TRIPOS>BOND
     1    1    2 2  
     2    2    3 2  
     3    2    4 am 
     4    2    5 1  
     5    5    6 ar 
     6    5    7 ar 
     7    6    9 ar 
     8    7    8 ar 
     9    8   10 ar 
    10    9   10 ar 
    11   10   11 1  
    12   11   12 1  
    13   12   13 1  
    14   12   19 2  
    15   13   14 1  
    16   13   18 1  
    17   14   15 1  
    18   14   16 2  
    19   15   20 2  
    20   16   17 1  
    21   17   18 2  
    22   19   20 1  
    23   20   22 1  
    24   22   21 1  
    25   21   23 1  
    26   23   24 1  
    27   23   28 1  
    28   24   25 1  
    29   25   26 1  
    30   26   27 1  
    31   27   28 1  
    32    4   29 1  
    33    4   30 1  
    34    6   31 1  
    35    7   32 1  
    36    8   33 1  
    37    9   34 1  
    38   11   35 1  
    39   17   36 1  
    40   19   37 1  
    41   21   38 1  
    42   21   39 1  
    43   23   40 1  
    44   24   41 1  
    45   24   42 1  
    46   25   43 1  
    47   25   44 1  
    48   26   45 1  
    49   26   46 1  
    50   27   47 1  
    51   27   48 1  
    52   28   49 1  
    53   28   50 1  
@<TRIPOS>SUBSTRUCTURE
     1 DT1         1

