### 
### Created by X-TOOL on Mon Sep 10 21:12:52 2018
### 

@<TRIPOS>MOLECULE
2c6k_ligand
   48    51     1     0     0
SMALL
GAST_HUCK


@<TRIPOS>ATOM
      1 O2          6.2400  -12.0470    6.8590 O.2       1 DT2        -0.1519
      2 S1          6.6560  -10.7510    7.1710 S.o2      1 DT2         0.0609
      3 O3          5.6040   -9.9930    7.6480 O.2       1 DT2        -0.1519
      4 N6          7.3480  -10.0780    5.9650 N.am      1 DT2        -0.2621
      5 C16         7.8480  -10.8850    8.4680 C.ar      1 DT2         0.0967
      6 C15         8.1500  -12.1350    8.9940 C.ar      1 DT2        -0.0444
      7 C14         9.0900  -12.2590   10.0120 C.ar      1 DT2        -0.0352
      8 C13         9.7400  -11.1250   10.5040 C.ar      1 DT2         0.0714
      9 C18         9.4240   -9.8540    9.9880 C.ar      1 DT2        -0.0352
     10 C17         8.4900   -9.7390    8.9600 C.ar      1 DT2        -0.0444
     11 N5         10.6320  -11.2550   11.5140 N.pl3     1 DT2        -0.2233
     12 C9         11.7190  -10.4320   11.6290 C.2       1 DT2         0.2416
     13 N2         12.3240  -10.2990   12.8200 N.pl3     1 DT2        -0.0885
     14 N3         12.0180  -10.8720   13.9780 N.2       1 DT2        -0.1860
     15 C11        12.9080  -10.4240   14.8910 C.2       1 DT2         0.0396
     16 C10        13.3940   -9.5500   12.9720 C.2       1 DT2         0.2048
     17 N4         13.7700   -9.5820   14.2460 N.2       1 DT2        -0.3079
     18 N1         13.9080   -8.8230   11.9530 N.2       1 DT2        -0.2736
     19 C7         13.3660   -8.9130   10.7180 C.2       1 DT2         0.0940
     20 C8         12.2450   -9.7420   10.5180 C.2       1 DT2         0.0465
     21 N7         13.9630   -8.2450    9.6750 N.pl3     1 DT2        -0.3007
     22 C1         13.2340   -7.8600    8.4730 C.3       1 DT2         0.0409
     23 C2         13.3010   -9.0800    7.5620 C.3       1 DT2        -0.0297
     24 C3         12.7350   -8.7230    6.1900 C.3       1 DT2        -0.0509
     25 C4         13.5550   -7.5900    5.5790 C.3       1 DT2        -0.0529
     26 C5         13.4940   -6.3680    6.4910 C.3       1 DT2        -0.0509
     27 C6         14.0570   -6.7270    7.8630 C.3       1 DT2        -0.0297
     28 H1          8.1270  -10.5230    5.5232 H         1 DT2         0.1633
     29 H2          7.0170   -9.1973    5.6261 H         1 DT2         0.1633
     30 H3          7.6511  -13.0173    8.6096 H         1 DT2         0.0608
     31 H4          9.3179  -13.2357   10.4233 H         1 DT2         0.0541
     32 H5          9.9049   -8.9688   10.3884 H         1 DT2         0.0541
     33 H6          8.2601   -8.7658    8.5415 H         1 DT2         0.0608
     34 H7         10.4883  -11.9948   12.2161 H         1 DT2         0.2258
     35 H8         12.9337  -10.6860   15.9477 H         1 DT2         0.0845
     36 H9         11.7965   -9.8471    9.5312 H         1 DT2         0.0401
     37 H10        14.9628   -8.0078    9.7457 H         1 DT2         0.1853
     38 H11        12.1975   -7.5543    8.6784 H         1 DT2         0.0559
     39 H12        12.7105   -9.8979    8.0006 H         1 DT2         0.0288
     40 H13        14.3478   -9.4002    7.4546 H         1 DT2         0.0288
     41 H14        11.6887   -8.4012    6.2977 H         1 DT2         0.0266
     42 H15        12.7819   -9.6044    5.5336 H         1 DT2         0.0266
     43 H16        13.1444   -7.3314    4.5918 H         1 DT2         0.0265
     44 H17        14.6007   -7.9128    5.4682 H         1 DT2         0.0265
     45 H18        12.4488   -6.0422    6.5977 H         1 DT2         0.0266
     46 H19        14.0891   -5.5534    6.0525 H         1 DT2         0.0266
     47 H20        15.1030   -7.0503    7.7565 H         1 DT2         0.0288
     48 H21        14.0107   -5.8459    8.5199 H         1 DT2         0.0288
@<TRIPOS>BOND
     1    1    2 2  
     2    2    3 2  
     3    2    4 am 
     4    2    5 1  
     5    5    6 ar 
     6    5   10 ar 
     7    6    7 ar 
     8    7    8 ar 
     9    8    9 ar 
    10    8   11 1  
    11    9   10 ar 
    12   11   12 1  
    13   12   13 1  
    14   12   20 2  
    15   13   14 1  
    16   13   16 1  
    17   14   15 2  
    18   15   17 1  
    19   16   17 2  
    20   16   18 1  
    21   18   19 2  
    22   19   20 1  
    23   19   21 1  
    24   21   22 1  
    25   22   23 1  
    26   22   27 1  
    27   23   24 1  
    28   24   25 1  
    29   25   26 1  
    30   26   27 1  
    31    4   28 1  
    32    4   29 1  
    33    6   30 1  
    34    7   31 1  
    35    9   32 1  
    36   10   33 1  
    37   11   34 1  
    38   15   35 1  
    39   20   36 1  
    40   21   37 1  
    41   22   38 1  
    42   23   39 1  
    43   23   40 1  
    44   24   41 1  
    45   24   42 1  
    46   25   43 1  
    47   25   44 1  
    48   26   45 1  
    49   26   46 1  
    50   27   47 1  
    51   27   48 1  
@<TRIPOS>SUBSTRUCTURE
     1 DT2         1

