### 
### Created by X-TOOL on Mon Sep 10 21:12:52 2018
### 

@<TRIPOS>MOLECULE
2c6l_ligand
   52    55     1     0     0
SMALL
GAST_HUCK


@<TRIPOS>ATOM
      1 O2          5.8780  -12.0370    6.8320 O.2       1 DT4        -0.1478
      2 S1          6.4730  -10.8020    7.0150 S.o2      1 DT4         0.0754
      3 O3          5.5680   -9.8720    7.4710 O.2       1 DT4        -0.1478
      4 N6          7.1820  -10.3250    5.7270 N.am      1 DT4        -0.2588
      5 C16         7.7030  -10.9970    8.2720 C.ar      1 DT4         0.1295
      6 C15         8.0150  -12.2700    8.7390 C.ar      1 DT4        -0.0099
      7 C14         8.9590  -12.4360    9.7320 C.ar      1 DT4         0.0085
      8 C13         9.6070  -11.3230   10.2760 C.ar      1 DT4         0.1369
      9 C18         9.2790  -10.0330    9.8280 C.ar      1 DT4         0.0085
     10 C17         8.3340   -9.8720    8.8190 C.ar      1 DT4        -0.0099
     11 N5         10.5080  -11.4970   11.2850 N.pl3     1 DT4        -0.2016
     12 C9         11.6070  -10.7240   11.3800 C.ar      1 DT4         0.2218
     13 N2         12.2050  -10.5550   12.5570 N.ar      1 DT4        -0.1565
     14 N3         11.8770  -11.0470   13.7320 N.pl3     1 DT4        -0.1707
     15 C11        12.7900  -10.5820   14.6340 C.2       1 DT4         0.1471
     16 C10        13.2850   -9.8110   12.6790 C.ar      1 DT4         0.1912
     17 N4         13.6730   -9.8060   13.9580 N.2       1 DT4        -0.2480
     18 N1         13.8370   -9.1820   11.6190 N.ar      1 DT4        -0.2211
     19 C7         13.2530   -9.3030   10.3950 C.ar      1 DT4         0.1467
     20 C8         12.1390  -10.1100   10.2550 C.ar      1 DT4         0.0649
     21 N7         13.8370   -8.7680    9.3050 N.pl3     1 DT4        -0.2980
     22 C1         13.7310   -7.3600    8.9880 C.3       1 DT4         0.0400
     23 C2         14.4750   -7.2050    7.6630 C.3       1 DT4        -0.0247
     24 C3         14.6010   -5.7250    7.3210 C.3       1 DT4        -0.0077
     25 C4         15.3790   -5.0150    8.4210 C.3       1 DT4        -0.0242
     26 N8         15.5140   -3.5880    8.0860 N.4       1 DT4         0.2207
     27 C5         14.6350   -5.1620    9.7460 C.3       1 DT4        -0.0077
     28 C6         14.5020   -6.6430   10.0950 C.3       1 DT4        -0.0247
     29 H1          7.8666  -10.9071    5.2883 H         1 DT4         0.1637
     30 H2          6.9561   -9.4343    5.3324 H         1 DT4         0.1637
     31 H3          7.5142  -13.1356    8.3208 H         1 DT4         0.0710
     32 H4          9.1983  -13.4306   10.0906 H         1 DT4         0.0768
     33 H5          9.7600   -9.1661   10.2664 H         1 DT4         0.0768
     34 H6          8.0872   -8.8802    8.4578 H         1 DT4         0.0710
     35 H7         10.3451  -12.2328   11.9871 H         1 DT4         0.2764
     36 H8         11.0799  -11.6674   13.9338 H         1 DT4         0.2796
     37 H9         12.8063  -10.7953   15.7018 H         1 DT4         0.1466
     38 H10        11.6879  -10.2608    9.2809 H         1 DT4         0.0753
     39 H11        14.3763   -9.3810    8.6771 H         1 DT4         0.1834
     40 H12        12.6897   -7.0122    8.9202 H         1 DT4         0.0557
     41 H13        13.9167   -7.7190    6.8667 H         1 DT4         0.0290
     42 H14        15.4782   -7.6474    7.7518 H         1 DT4         0.0290
     43 H15        13.5980   -5.2814    7.2363 H         1 DT4         0.0320
     44 H16        15.1332   -5.6135    6.3648 H         1 DT4         0.0320
     45 H17        16.3786   -5.4652    8.5112 H         1 DT4         0.0850
     46 H18        16.0290   -3.1191    8.8147 H         1 DT4         0.1997
     47 H19        14.5986   -3.1745    8.0022 H         1 DT4         0.1997
     48 H20        16.0069   -3.4932    7.2119 H         1 DT4         0.1997
     49 H21        13.6338   -4.7155    9.6556 H         1 DT4         0.0320
     50 H22        15.1957   -4.6473   10.5402 H         1 DT4         0.0320
     51 H23        15.5032   -7.0881   10.1920 H         1 DT4         0.0290
     52 H24        13.9602   -6.7482   11.0465 H         1 DT4         0.0290
@<TRIPOS>BOND
     1    1    2 2  
     2    2    3 2  
     3    2    4 am 
     4    2    5 1  
     5    5    6 ar 
     6    5   10 ar 
     7    6    7 ar 
     8    7    8 ar 
     9    8    9 ar 
    10    8   11 1  
    11    9   10 ar 
    12   11   12 1  
    13   12   13 ar 
    14   12   20 ar 
    15   13   14 1  
    16   13   16 ar 
    17   14   15 1  
    18   15   17 2  
    19   16   17 1  
    20   16   18 ar 
    21   18   19 ar 
    22   19   20 ar 
    23   19   21 1  
    24   21   22 1  
    25   22   23 1  
    26   22   28 1  
    27   23   24 1  
    28   24   25 1  
    29   25   26 1  
    30   25   27 1  
    31   27   28 1  
    32    4   29 1  
    33    4   30 1  
    34    6   31 1  
    35    7   32 1  
    36    9   33 1  
    37   10   34 1  
    38   11   35 1  
    39   14   36 1  
    40   15   37 1  
    41   20   38 1  
    42   21   39 1  
    43   22   40 1  
    44   23   41 1  
    45   23   42 1  
    46   24   43 1  
    47   24   44 1  
    48   25   45 1  
    49   26   46 1  
    50   26   47 1  
    51   26   48 1  
    52   27   49 1  
    53   27   50 1  
    54   28   51 1  
    55   28   52 1  
@<TRIPOS>SUBSTRUCTURE
     1 DT4         1

