### 
### Created by X-TOOL on Mon Sep 10 21:12:52 2018
### 

@<TRIPOS>MOLECULE
2c6m_ligand
   47    50     1     0     0
SMALL
GAST_HUCK


@<TRIPOS>ATOM
      1 N6          6.1140  -12.0210    6.9000 N.am      1 DT5        -0.2621
      2 S1          6.6110  -10.5820    7.3350 S.o2      1 DT5         0.0609
      3 O2          7.2320   -9.9080    6.1890 O.2       1 DT5        -0.1519
      4 O3          5.4820   -9.7940    7.8170 O.2       1 DT5        -0.1519
      5 C16         7.7930  -10.7200    8.5890 C.ar      1 DT5         0.0967
      6 C15         8.0910  -11.9570    9.1300 C.ar      1 DT5        -0.0443
      7 C17         8.4570   -9.5710    9.0410 C.ar      1 DT5        -0.0443
      8 C18         9.4190   -9.6660   10.0390 C.ar      1 DT5        -0.0351
      9 C14         9.0400  -12.0580   10.1430 C.ar      1 DT5        -0.0351
     10 C13         9.7420  -10.9150   10.5760 C.ar      1 DT5         0.0716
     11 N5         10.6100  -11.0310   11.6250 N.pl3     1 DT5        -0.2227
     12 C9         11.7600  -10.2450   11.8100 C.2       1 DT5         0.2441
     13 N2         12.3410  -10.2420   13.0150 N.pl3     1 DT5        -0.0870
     14 C10        13.4410   -9.5510   13.2630 C.2       1 DT5         0.2084
     15 N1         14.0340   -8.7990   12.3310 N.2       1 DT5        -0.2598
     16 N4         13.7520   -9.6740   14.5510 N.2       1 DT5        -0.3065
     17 C11        12.8130  -10.4920   15.1050 C.2       1 DT5         0.0404
     18 N3         11.9550  -10.8540   14.1150 N.2       1 DT5        -0.1851
     19 C8         12.3890   -9.5160   10.7480 C.2       1 DT5         0.0582
     20 C7         13.5490   -8.7620   11.0640 C.2       1 DT5         0.1507
     21 O1         14.2540   -8.0350   10.1230 O.3       1 DT5        -0.2909
     22 C1         13.6090   -7.8770    8.9240 C.3       1 DT5         0.0886
     23 C2         14.2050   -8.8760    7.9240 C.3       1 DT5        -0.0212
     24 C3         13.6270   -8.6400    6.5200 C.3       1 DT5        -0.0503
     25 C4         13.9550   -7.2180    6.0580 C.3       1 DT5        -0.0529
     26 C5         13.3320   -6.2180    7.0330 C.3       1 DT5        -0.0503
     27 C6         13.9010   -6.4470    8.4370 C.3       1 DT5        -0.0212
     28 H1          6.7673  -12.6892    6.5442 H         1 DT5         0.1633
     29 H2          5.1468  -12.2616    6.9811 H         1 DT5         0.1633
     30 H3          7.5871  -12.8452    8.7664 H         1 DT5         0.0608
     31 H4          8.2191   -8.6051    8.6104 H         1 DT5         0.0608
     32 H5          9.9176   -8.7737   10.4000 H         1 DT5         0.0541
     33 H6          9.2401  -13.0199   10.6010 H         1 DT5         0.0541
     34 H7         10.4057  -11.7494   12.3342 H         1 DT5         0.2261
     35 H8         12.7600  -10.7989   16.1485 H         1 DT5         0.0847
     36 H9         11.9908   -9.5399    9.7347 H         1 DT5         0.0421
     37 H10        12.5266   -8.0389    9.0347 H         1 DT5         0.0662
     38 H11        13.9644   -9.8995    8.2474 H         1 DT5         0.0295
     39 H12        15.2971   -8.7487    7.8921 H         1 DT5         0.0295
     40 H13        12.5354   -8.7727    6.5472 H         1 DT5         0.0266
     41 H14        14.0669   -9.3630    5.8174 H         1 DT5         0.0266
     42 H15        13.5448   -7.0543    5.0506 H         1 DT5         0.0265
     43 H16        15.0461   -7.0803    6.0365 H         1 DT5         0.0265
     44 H17        12.2410   -6.3571    7.0529 H         1 DT5         0.0266
     45 H18        13.5652   -5.1939    6.7060 H         1 DT5         0.0266
     46 H19        14.9895   -6.2901    8.4139 H         1 DT5         0.0295
     47 H20        13.4417   -5.7293    9.1326 H         1 DT5         0.0295
@<TRIPOS>BOND
     1    1    2 am 
     2    2    3 2  
     3    2    4 2  
     4    2    5 1  
     5    5    6 ar 
     6    5    7 ar 
     7    6    9 ar 
     8    7    8 ar 
     9    8   10 ar 
    10    9   10 ar 
    11   10   11 1  
    12   11   12 1  
    13   12   13 1  
    14   12   19 2  
    15   13   14 1  
    16   13   18 1  
    17   14   15 1  
    18   14   16 2  
    19   15   20 2  
    20   16   17 1  
    21   17   18 2  
    22   19   20 1  
    23   20   21 1  
    24   21   22 1  
    25   22   23 1  
    26   22   27 1  
    27   23   24 1  
    28   24   25 1  
    29   25   26 1  
    30   26   27 1  
    31    1   28 1  
    32    1   29 1  
    33    6   30 1  
    34    7   31 1  
    35    8   32 1  
    36    9   33 1  
    37   11   34 1  
    38   17   35 1  
    39   19   36 1  
    40   22   37 1  
    41   23   38 1  
    42   23   39 1  
    43   24   40 1  
    44   24   41 1  
    45   25   42 1  
    46   25   43 1  
    47   26   44 1  
    48   26   45 1  
    49   27   46 1  
    50   27   47 1  
@<TRIPOS>SUBSTRUCTURE
     1 DT5         1

