### 
### Created by X-TOOL on Mon Sep 10 21:12:55 2018
### 

@<TRIPOS>MOLECULE
2c6n_ligand
   58    59     1     0     0
SMALL
GAST_HUCK


@<TRIPOS>ATOM
      1 O2        -28.3030  -20.4080  -34.7740 O.co2     1 LPR        -0.5643
      2 O3        -26.2890  -21.2360  -34.7760 O.co2     1 LPR        -0.5643
      3 C3        -27.0740  -20.3500  -34.4390 C.2       1 LPR         0.0847
      4 C4        -26.5420  -19.1290  -33.6480 C.3       1 LPR         0.0340
      5 C14       -26.4180  -19.7210  -32.3000 C.3       1 LPR         0.0122
      6 C15       -25.1380  -20.3740  -31.8460 C.3       1 LPR        -0.0125
      7 C16       -24.9480  -20.9490  -30.4960 C.ar      1 LPR        -0.0427
      8 C17       -25.5160  -20.3160  -29.2880 C.ar      1 LPR        -0.0603
      9 C18       -25.2750  -20.9120  -27.9950 C.ar      1 LPR        -0.0686
     10 C19       -24.4700  -22.1380  -27.8800 C.ar      1 LPR        -0.0687
     11 C20       -23.9090  -22.7670  -29.0800 C.ar      1 LPR        -0.0686
     12 C21       -24.1500  -22.1680  -30.3820 C.ar      1 LPR        -0.0603
     13 N1        -27.1190  -18.1380  -33.9690 N.4       1 LPR         0.2599
     14 N3        -28.5840  -11.5430  -36.0340 N.4       1 LPR         0.2185
     15 C1        -25.8070  -17.1520  -35.8840 C.2       1 LPR         0.2319
     16 C2        -27.2610  -17.5220  -35.3340 C.3       1 LPR         0.0688
     17 O1        -24.8520  -17.0380  -35.0470 O.2       1 LPR        -0.3903
     18 C10       -28.1220  -16.2850  -35.2840 C.3       1 LPR         0.0082
     19 C11       -27.6920  -15.0040  -34.7730 C.3       1 LPR        -0.0410
     20 C12       -28.2810  -13.8180  -35.6110 C.3       1 LPR        -0.0123
     21 C13       -27.9410  -12.5420  -35.1450 C.3       1 LPR        -0.0354
     22 O4        -22.5700  -15.1820  -36.9960 O.co2     1 LPR        -0.5644
     23 O5        -24.4740  -14.2250  -37.5470 O.co2     1 LPR        -0.5644
     24 N2        -25.6100  -16.9680  -37.2440 N.am      1 LPR        -0.2370
     25 C5        -24.2490  -16.6190  -37.8570 C.3       1 LPR         0.1158
     26 C6        -24.6010  -16.5590  -39.3420 C.2       1 LPR        -0.0586
     27 C7        -25.9190  -16.8080  -39.5360 C.2       1 LPR        -0.0722
     28 C8        -26.6480  -17.0770  -38.3050 C.3       1 LPR         0.0555
     29 C9        -23.7700  -15.1860  -37.4400 C.2       1 LPR         0.0688
     30 H1        -25.5079  -18.9285  -33.9648 H         1 LPR         0.1027
     31 H2        -27.2027  -20.4880  -32.2235 H         1 LPR         0.0361
     32 H3        -26.6253  -18.9117  -31.5844 H         1 LPR         0.0361
     33 H4        -24.3542  -19.6107  -31.9605 H         1 LPR         0.0429
     34 H5        -24.9539  -21.1973  -32.5518 H         1 LPR         0.0429
     35 H6        -26.1085  -19.4121  -29.3715 H         1 LPR         0.0557
     36 H7        -25.6894  -20.4536  -27.1044 H         1 LPR         0.0599
     37 H8        -24.2910  -22.5776  -26.9054 H         1 LPR         0.0559
     38 H9        -23.3187  -23.6724  -28.9965 H         1 LPR         0.0599
     39 H10       -23.7361  -22.6273  -31.2724 H         1 LPR         0.0557
     40 H11       -26.6992  -17.4121  -33.4097 H         1 LPR         0.2052
     41 H12       -28.0675  -18.2911  -33.6640 H         1 LPR         0.2052
     42 H13       -28.3532  -10.6141  -35.7178 H         1 LPR         0.1994
     43 H14       -29.5841  -11.6670  -36.0109 H         1 LPR         0.1994
     44 H15       -28.2515  -11.6692  -36.9772 H         1 LPR         0.1994
     45 H16       -27.7294  -18.2524  -36.0100 H         1 LPR         0.1099
     46 H17       -29.0011  -16.5618  -34.6835 H         1 LPR         0.0346
     47 H18       -28.4314  -16.0990  -36.3231 H         1 LPR         0.0346
     48 H19       -26.5937  -14.9558  -34.8103 H         1 LPR         0.0270
     49 H20       -28.0282  -14.9051  -33.7303 H         1 LPR         0.0270
     50 H21       -29.3776  -13.9043  -35.6018 H         1 LPR         0.0317
     51 H22       -27.9143  -13.9137  -36.6436 H         1 LPR         0.0317
     52 H23       -28.3029  -12.4123  -34.1144 H         1 LPR         0.0813
     53 H24       -26.8487  -12.4147  -35.1689 H         1 LPR         0.0813
     54 H25       -23.4834  -17.3736  -37.6236 H         1 LPR         0.0851
     55 H26       -23.8889  -16.3450  -40.1377 H         1 LPR         0.0488
     56 H27       -26.3879  -16.8069  -40.5189 H         1 LPR         0.0478
     57 H28       -27.4444  -16.3340  -38.1514 H         1 LPR         0.0651
     58 H29       -27.0860  -18.0859  -38.3220 H         1 LPR         0.0651
@<TRIPOS>BOND
     1    3    1 ar 
     2    3    2 ar 
     3    4    3 1  
     4    4    5 1  
     5   13    4 1  
     6    5    6 1  
     7    6    7 1  
     8    7    8 ar 
     9    7   12 ar 
    10    8    9 ar 
    11    9   10 ar 
    12   11   10 ar 
    13   12   11 ar 
    14   16   13 1  
    15   21   14 1  
    16   15   16 1  
    17   15   17 2  
    18   24   15 am 
    19   16   18 1  
    20   18   19 1  
    21   19   20 1  
    22   20   21 1  
    23   29   22 ar 
    24   29   23 ar 
    25   25   24 1  
    26   24   28 1  
    27   25   26 1  
    28   25   29 1  
    29   26   27 2  
    30   27   28 1  
    31    4   30 1  
    32    5   31 1  
    33    5   32 1  
    34    6   33 1  
    35    6   34 1  
    36    8   35 1  
    37    9   36 1  
    38   10   37 1  
    39   11   38 1  
    40   12   39 1  
    41   13   40 1  
    42   13   41 1  
    43   14   42 1  
    44   14   43 1  
    45   14   44 1  
    46   16   45 1  
    47   18   46 1  
    48   18   47 1  
    49   19   48 1  
    50   19   49 1  
    51   20   50 1  
    52   20   51 1  
    53   21   52 1  
    54   21   53 1  
    55   25   54 1  
    56   26   55 1  
    57   27   56 1  
    58   28   57 1  
    59   28   58 1  
@<TRIPOS>SUBSTRUCTURE
     1 LPR         1

