### 
### Created by X-TOOL on Mon Sep 10 21:12:53 2018
### 

@<TRIPOS>MOLECULE
2c6o_ligand
   50    53     1     0     0
SMALL
GAST_HUCK


@<TRIPOS>ATOM
      1 C2         11.1610  -10.9210   12.0300 C.ar      1 4SP         0.1766
      2 C8         14.5130   -9.3380   14.3240 C.2       1 4SP         0.1089
      3 C10        12.7990   -8.2390    9.1340 C.3       1 4SP         0.0791
      4 C11        13.6490   -7.0450    8.6870 C.3       1 4SP        -0.0123
      5 C12        13.0310   -6.0320    7.7410 C.3       1 4SP        -0.0477
      6 C13        13.7020   -4.6620    7.9730 C.3       1 4SP        -0.0527
      7 C14        15.2210   -4.7530    7.7320 C.3       1 4SP        -0.0530
      8 C15        15.8200   -6.1550    8.1270 C.3       1 4SP        -0.0527
      9 C16        14.9100   -7.4130    7.9720 C.3       1 4SP        -0.0477
     10 C19         7.4550  -12.0300    9.1550 C.ar      1 4SP        -0.0451
     11 C20         7.6260  -10.8820    8.3830 C.ar      1 4SP         0.0960
     12 C21         8.6270   -9.9700    8.7320 C.ar      1 4SP        -0.0451
     13 C22         9.4620  -10.2110    9.8480 C.ar      1 4SP        -0.0369
     14 N26         7.2460   -9.6050    5.8070 N.am      1 4SP        -0.2622
     15 N1         11.7660  -10.1610   11.0430 N.ar      1 4SP        -0.2391
     16 C6         12.8640   -9.4250   11.2830 C.ar      1 4SP         0.1974
     17 O6         13.5020   -8.6820   10.3840 O.3       1 4SP        -0.2928
     18 C5         13.4100   -9.5190   12.5370 C.ar      1 4SP         0.1541
     19 N7         14.4690   -8.9600   13.0550 N.pl3     1 4SP        -0.2448
     20 N9         13.4840  -10.1640   14.5740 N.2       1 4SP        -0.2902
     21 C4         12.7740  -10.2850   13.5300 C.ar      1 4SP         0.0900
     22 N3         11.6770  -10.9880   13.2900 N.ar      1 4SP        -0.2816
     23 N2         10.0330  -11.6130   11.7300 N.pl3     1 4SP        -0.2509
     24 C17         9.2890  -11.3560   10.6390 C.ar      1 4SP         0.0633
     25 C18         8.2740  -12.2530   10.2600 C.ar      1 4SP        -0.0369
     26 S23         6.5670  -10.5610    6.9880 S.o2      1 4SP         0.0607
     27 O24         5.3870   -9.9200    7.6140 O.2       1 4SP        -0.1520
     28 O25         6.2220  -11.7970    6.2810 O.2       1 4SP        -0.1520
     29 H1         15.2641   -9.0282   15.0491 H         1 4SP         0.1396
     30 H2         12.7985   -9.0344    8.3741 H         1 4SP         0.0627
     31 H3         11.7637   -7.9338    9.3461 H         1 4SP         0.0627
     32 H4         13.9161   -6.5159    9.6136 H         1 4SP         0.0327
     33 H5         11.9516   -5.9530    7.9374 H         1 4SP         0.0269
     34 H6         13.1920   -6.3512    6.7007 H         1 4SP         0.0269
     35 H7         13.5192   -4.3410    9.0091 H         1 4SP         0.0265
     36 H8         13.2697   -3.9258    7.2794 H         1 4SP         0.0265
     37 H9         15.7189   -3.9768    8.3317 H         1 4SP         0.0265
     38 H10        15.4186   -4.5748    6.6647 H         1 4SP         0.0265
     39 H11        16.1190   -6.0964    9.1840 H         1 4SP         0.0265
     40 H12        16.7108   -6.3173    7.5024 H         1 4SP         0.0265
     41 H13        14.7100   -7.6212    6.9106 H         1 4SP         0.0269
     42 H14        15.3790   -8.2931    8.4362 H         1 4SP         0.0269
     43 H15         6.6857  -12.7485    8.8960 H         1 4SP         0.0606
     44 H16         8.7642   -9.0708    8.1423 H         1 4SP         0.0606
     45 H17        10.2445   -9.5026   10.0946 H         1 4SP         0.0534
     46 H18         6.7213   -9.3742    4.9876 H         1 4SP         0.1633
     47 H19         8.1787   -9.2614    5.9168 H         1 4SP         0.1633
     48 H20        15.1395   -8.3452   12.5719 H         1 4SP         0.2354
     49 H21         9.7337  -12.3671   12.3645 H         1 4SP         0.2150
     50 H22         8.1234  -13.1505   10.8490 H         1 4SP         0.0534
@<TRIPOS>BOND
     1    1   15 ar 
     2    1   22 ar 
     3   23    1 1  
     4    2   19 1  
     5   20    2 2  
     6    3    4 1  
     7   17    3 1  
     8    4    5 1  
     9    4    9 1  
    10    5    6 1  
    11    6    7 1  
    12    8    7 1  
    13    9    8 1  
    14   11   10 ar 
    15   10   25 ar 
    16   12   11 ar 
    17   11   26 1  
    18   13   12 ar 
    19   24   13 ar 
    20   26   14 am 
    21   15   16 ar 
    22   16   17 1  
    23   16   18 ar 
    24   18   19 1  
    25   21   18 ar 
    26   21   20 1  
    27   22   21 ar 
    28   23   24 1  
    29   24   25 ar 
    30   26   27 2  
    31   26   28 2  
    32    2   29 1  
    33    3   30 1  
    34    3   31 1  
    35    4   32 1  
    36    5   33 1  
    37    5   34 1  
    38    6   35 1  
    39    6   36 1  
    40    7   37 1  
    41    7   38 1  
    42    8   39 1  
    43    8   40 1  
    44    9   41 1  
    45    9   42 1  
    46   10   43 1  
    47   12   44 1  
    48   13   45 1  
    49   14   46 1  
    50   14   47 1  
    51   19   48 1  
    52   23   49 1  
    53   25   50 1  
@<TRIPOS>SUBSTRUCTURE
     1 4SP         1

