### 
### Created by X-TOOL on Mon Sep 10 21:12:54 2018
### 

@<TRIPOS>MOLECULE
2c80_ligand
   54    53     1     0     0
SMALL
GAST_HUCK


@<TRIPOS>ATOM
      1 N1        -10.8020   26.4010   -2.1630 N.4       1 GTX         0.2328
      2 CA1       -11.8480   27.0190   -2.9550 C.3       1 GTX         0.0304
      3 C1        -12.2020   26.1250   -4.1030 C.2       1 GTX         0.0846
      4 O11       -11.3120   25.5120   -4.7300 O.co2     1 GTX        -0.5643
      5 O12       -13.3910   26.0020   -4.4530 O.co2     1 GTX        -0.5643
      6 CB1       -11.3810   28.3670   -3.4990 C.3       1 GTX         0.0193
      7 CG1       -12.5510   29.1780   -4.0660 C.3       1 GTX         0.0441
      8 CD1       -12.0830   30.5440   -4.5110 C.2       1 GTX         0.1785
      9 OE1       -10.8900   31.0810   -3.9970 O.2       1 GTX        -0.3969
     10 N2        -12.8450   31.1940   -5.3940 N.am      1 GTX        -0.2648
     11 CA2       -12.4440   32.4530   -6.0040 C.3       1 GTX         0.1397
     12 C2        -13.5910   33.4080   -6.0840 C.2       1 GTX         0.2040
     13 O2        -14.8890   32.9090   -6.2870 O.2       1 GTX        -0.3944
     14 CB2       -11.8360   32.2500   -7.3980 C.3       1 GTX         0.0341
     15 SG2       -10.8320   30.7390   -7.5330 S.3       1 GTX        -0.1560
     16 C1S        -9.4230   31.5750   -6.7570 C.3       1 GTX        -0.0061
     17 C2S        -8.2020   30.6740   -6.6170 C.3       1 GTX        -0.0440
     18 C3S        -7.0830   31.1900   -7.5150 C.3       1 GTX        -0.0523
     19 C4S        -6.8780   30.2820   -8.7220 C.3       1 GTX        -0.0533
     20 C5S        -6.3350   31.0750   -9.9060 C.3       1 GTX        -0.0559
     21 C6S        -5.3730   30.2420  -10.7490 C.3       1 GTX        -0.0653
     22 N3        -13.3060   34.7030   -5.9620 N.am      1 GTX        -0.2722
     23 CA3       -14.2730   35.7360   -6.2850 C.3       1 GTX         0.0833
     24 C3        -14.8700   36.3120   -5.0280 C.2       1 GTX         0.0570
     25 O31       -15.8330   37.1040   -5.0750 O.co2     1 GTX        -0.5669
     26 O32       -14.3960   36.0010   -3.9170 O.co2     1 GTX        -0.5669
     27 H1        -10.5648   27.0038   -1.3907 H         1 GTX         0.2010
     28 H2         -9.9870   26.2550   -2.7379 H         1 GTX         0.2010
     29 H3        -11.1272   25.5147   -1.8098 H         1 GTX         0.2010
     30 H4        -12.7356   27.1714   -2.3234 H         1 GTX         0.1026
     31 H5        -10.6448   28.1947   -4.2980 H         1 GTX         0.0363
     32 H6        -10.9114   28.9381   -2.6846 H         1 GTX         0.0363
     33 H7        -13.3206   29.2947   -3.2888 H         1 GTX         0.0505
     34 H8        -12.9779   28.6435   -4.9274 H         1 GTX         0.0505
     35 H9        -13.7283   30.7991   -5.6468 H         1 GTX         0.1883
     36 H10       -11.6721   32.9021   -5.3617 H         1 GTX         0.0808
     37 H11       -11.1974   33.1152   -7.6296 H         1 GTX         0.0424
     38 H12       -12.6544   32.1918   -8.1306 H         1 GTX         0.0424
     39 H13        -9.7249   31.9150   -5.7554 H         1 GTX         0.0376
     40 H14        -9.1486   32.4446   -7.3722 H         1 GTX         0.0376
     41 H15        -8.4671   29.6486   -6.9142 H         1 GTX         0.0273
     42 H16        -7.8627   30.6764   -5.5706 H         1 GTX         0.0273
     43 H17        -6.1490   31.2319   -6.9355 H         1 GTX         0.0266
     44 H18        -7.3422   32.1997   -7.8662 H         1 GTX         0.0266
     45 H19        -7.8409   29.8296   -9.0014 H         1 GTX         0.0265
     46 H20        -6.1624   29.4887   -8.4599 H         1 GTX         0.0265
     47 H21        -5.8029   31.9605   -9.5282 H         1 GTX         0.0263
     48 H22        -7.1771   31.3948  -10.5373 H         1 GTX         0.0263
     49 H23        -5.0044   30.8473  -11.5903 H         1 GTX         0.0230
     50 H24        -5.8977   29.3564  -11.1367 H         1 GTX         0.0230
     51 H25        -4.5236   29.9221  -10.1276 H         1 GTX         0.0230
     52 H26       -12.3988   34.9717   -5.6382 H         1 GTX         0.1873
     53 H27       -15.0747   35.3016   -6.9003 H         1 GTX         0.0689
     54 H28       -13.7721   36.5374   -6.8479 H         1 GTX         0.0689
@<TRIPOS>BOND
     1    1    2 1  
     2    2    3 1  
     3    2    6 1  
     4    3    4 ar 
     5    3    5 ar 
     6    6    7 1  
     7    7    8 1  
     8    8    9 2  
     9    8   10 am 
    10   10   11 1  
    11   11   12 1  
    12   11   14 1  
    13   12   13 2  
    14   12   22 am 
    15   14   15 1  
    16   15   16 1  
    17   16   17 1  
    18   17   18 1  
    19   18   19 1  
    20   19   20 1  
    21   20   21 1  
    22   22   23 1  
    23   23   24 1  
    24   24   25 ar 
    25   24   26 ar 
    26    1   27 1  
    27    1   28 1  
    28    1   29 1  
    29    2   30 1  
    30    6   31 1  
    31    6   32 1  
    32    7   33 1  
    33    7   34 1  
    34   10   35 1  
    35   11   36 1  
    36   14   37 1  
    37   14   38 1  
    38   16   39 1  
    39   16   40 1  
    40   17   41 1  
    41   17   42 1  
    42   18   43 1  
    43   18   44 1  
    44   19   45 1  
    45   19   46 1  
    46   20   47 1  
    47   20   48 1  
    48   21   49 1  
    49   21   50 1  
    50   21   51 1  
    51   22   52 1  
    52   23   53 1  
    53   23   54 1  
@<TRIPOS>SUBSTRUCTURE
     1 GTX         1

