### 
### Created by X-TOOL on Mon Sep 10 21:12:53 2018
### 

@<TRIPOS>MOLECULE
2c8w_ligand
   65    68     1     0     0
SMALL
GAST_HUCK


@<TRIPOS>ATOM
      1 C1         -2.1020   20.2510   46.9570 C.3       1 C7M         0.0594
      2 O2         -0.9950   20.6250   46.1340 O.3       1 C7M        -0.3212
      3 C3          0.1910   19.9440   46.2300 C.ar      1 C7M         0.0908
      4 C4          1.2140   20.3070   45.3690 C.ar      1 C7M        -0.0313
      5 C5          2.4180   19.6680   45.3990 C.ar      1 C7M        -0.0441
      6 C6          2.6180   18.6300   46.2900 C.ar      1 C7M         0.0969
      7 C7          1.6100   18.2520   47.1550 C.ar      1 C7M        -0.0441
      8 C8          0.3970   18.9090   47.1250 C.ar      1 C7M        -0.0313
      9 S9          4.1370   17.7640   46.3570 S.o2      1 C7M         0.0634
     10 O10         3.7730   16.3870   46.3860 O.2       1 C7M        -0.1517
     11 O11         4.9800   18.3660   45.3880 O.2       1 C7M        -0.1517
     12 N12         4.7350   18.0420   47.8820 N.am      1 C7M        -0.2459
     13 C13         5.1500   19.4130   48.1900 C.3       1 C7M         0.0579
     14 C14         5.6600   19.4950   49.6350 C.3       1 C7M         0.1161
     15 O16         6.8090   18.6590   49.7470 O.3       1 C7M        -0.3844
     16 C17         6.0740   20.9230   50.0290 C.3       1 C7M         0.0162
     17 C19         4.8800   21.8780   49.9980 C.3       1 C7M         0.0265
     18 C20         3.7730   21.4350   50.9140 C.ar      1 C7M        -0.0376
     19 C21         2.5280   21.1230   50.3970 C.ar      1 C7M        -0.0601
     20 C22         1.5150   20.7230   51.2440 C.ar      1 C7M        -0.0686
     21 C23         1.7340   20.6440   52.6080 C.ar      1 C7M        -0.0687
     22 C24         2.9840   20.9520   53.1260 C.ar      1 C7M        -0.0686
     23 C25         4.0050   21.3530   52.2760 C.ar      1 C7M        -0.0601
     24 N26         7.1370   21.4290   49.1310 N.4       1 C7M         0.2439
     25 C29         7.9150   22.5430   49.7880 C.3       1 C7M         0.0020
     26 C30         9.1040   22.8590   48.9060 C.ar      1 C7M         0.0413
     27 C31         9.0730   23.9920   48.0940 C.ar      1 C7M        -0.0441
     28 C32        10.1390   24.2690   47.2440 C.ar      1 C7M         0.0275
     29 CL33       10.1100   25.6890   46.2370 Cl        1 C7M        -0.0782
     30 C34        11.2230   23.4010   47.1980 C.ar      1 C7M        -0.0578
     31 C35        11.2500   22.2590   47.9870 C.ar      1 C7M        -0.0286
     32 C36        10.1850   21.9820   48.8350 C.ar      1 C7M         0.1342
     33 N37        10.2560   20.8420   49.6640 N.pl3     1 C7M        -0.0982
     34 C38        10.2230   19.5310   49.3420 C.2       1 C7M         0.1657
     35 N39        10.3510   18.8550   50.4580 N.2       1 C7M        -0.2078
     36 N40        10.4790   19.6420   51.4640 N.2       1 C7M        -0.1386
     37 N41        10.4160   20.8630   51.0630 N.2       1 C7M        -0.0500
     38 H1         -2.9583   20.9064   46.7397 H         1 C7M         0.0577
     39 H2         -1.8223   20.3522   48.0160 H         1 C7M         0.0577
     40 H3         -2.3775   19.2066   46.7487 H         1 C7M         0.0577
     41 H4          1.0546   21.1117   44.6604 H         1 C7M         0.0542
     42 H5          3.2136   19.9720   44.7284 H         1 C7M         0.0608
     43 H6          1.7714   17.4410   47.8559 H         1 C7M         0.0608
     44 H7         -0.3954   18.6140   47.8033 H         1 C7M         0.0542
     45 H8          4.8082   17.3084   48.5576 H         1 C7M         0.1672
     46 H9          4.2914   20.0896   48.0679 H         1 C7M         0.0503
     47 H10         5.9543   19.7133   47.5023 H         1 C7M         0.0503
     48 H11         4.8709   19.1457   50.3171 H         1 C7M         0.0668
     49 H12         7.1407   18.6960   50.6365 H         1 C7M         0.2101
     50 H13         6.4687   20.8943   51.0553 H         1 C7M         0.0901
     51 H14         4.4912   21.9255   48.9701 H         1 C7M         0.0482
     52 H15         5.2180   22.8776   50.3088 H         1 C7M         0.0482
     53 H16         2.3492   21.1926   49.3301 H         1 C7M         0.0557
     54 H17         0.5422   20.4692   50.8387 H         1 C7M         0.0599
     55 H18         0.9308   20.3422   53.2705 H         1 C7M         0.0559
     56 H19         3.1626   20.8795   54.1927 H         1 C7M         0.0599
     57 H20         4.9809   21.6012   52.6774 H         1 C7M         0.0557
     58 H21         6.7153   21.7765   48.2840 H         1 C7M         0.2032
     59 H22         7.7668   20.6743   48.9077 H         1 C7M         0.2032
     60 H23         8.2609   22.2225   50.7818 H         1 C7M         0.0968
     61 H24         7.2782   23.4340   49.8911 H         1 C7M         0.0968
     62 H25         8.2178   24.6574   48.1250 H         1 C7M         0.0547
     63 H26        12.0562   23.6177   46.5393 H         1 C7M         0.0551
     64 H27        12.0987   21.5861   47.9416 H         1 C7M         0.0575
     65 H28        10.1110   19.1134   48.3425 H         1 C7M         0.1420
@<TRIPOS>BOND
     1    1    2 1  
     2    2    3 1  
     3    3    4 ar 
     4    3    8 ar 
     5    4    5 ar 
     6    5    6 ar 
     7    6    7 ar 
     8    6    9 1  
     9    7    8 ar 
    10    9   10 2  
    11    9   11 2  
    12    9   12 am 
    13   12   13 1  
    14   13   14 1  
    15   14   15 1  
    16   14   16 1  
    17   16   17 1  
    18   16   24 1  
    19   17   18 1  
    20   18   19 ar 
    21   18   23 ar 
    22   19   20 ar 
    23   20   21 ar 
    24   21   22 ar 
    25   22   23 ar 
    26   24   25 1  
    27   25   26 1  
    28   26   27 ar 
    29   26   32 ar 
    30   27   28 ar 
    31   28   29 1  
    32   28   30 ar 
    33   30   31 ar 
    34   31   32 ar 
    35   32   33 1  
    36   33   34 1  
    37   33   37 1  
    38   34   35 2  
    39   35   36 1  
    40   36   37 2  
    41    1   38 1  
    42    1   39 1  
    43    1   40 1  
    44    4   41 1  
    45    5   42 1  
    46    7   43 1  
    47    8   44 1  
    48   12   45 1  
    49   13   46 1  
    50   13   47 1  
    51   14   48 1  
    52   15   49 1  
    53   16   50 1  
    54   17   51 1  
    55   17   52 1  
    56   19   53 1  
    57   20   54 1  
    58   21   55 1  
    59   22   56 1  
    60   23   57 1  
    61   24   58 1  
    62   24   59 1  
    63   25   60 1  
    64   25   61 1  
    65   27   62 1  
    66   30   63 1  
    67   31   64 1  
    68   34   65 1  
@<TRIPOS>SUBSTRUCTURE
     1 C7M         1

