### 
### Created by X-TOOL on Mon Sep 10 21:12:53 2018
### 

@<TRIPOS>MOLECULE
2c8x_ligand
   69    71     1     0     0
SMALL
GAST_HUCK


@<TRIPOS>ATOM
      1 C1         -1.7230   19.9720   47.0770 C.3       1 C5M         0.0574
      2 O2         -0.6950   20.0550   46.0720 O.3       1 C5M        -0.3285
      3 C3          0.4300   19.4260   46.5170 C.ar      1 C5M         0.0795
      4 C4          0.4830   18.8900   47.7980 C.ar      1 C5M        -0.0435
      5 C5          1.6100   18.2390   48.2690 C.ar      1 C5M        -0.0415
      6 C6          1.5350   17.7120   49.6890 C.3       1 C5M        -0.0363
      7 C7          2.7190   18.0800   47.4230 C.ar      1 C5M         0.0927
      8 C8          2.6510   18.6150   46.1220 C.ar      1 C5M        -0.0328
      9 C9          3.8140   18.4690   45.1710 C.3       1 C5M        -0.0358
     10 C10         1.5170   19.2870   45.6730 C.ar      1 C5M        -0.0206
     11 C11         1.4470   19.8460   44.2680 C.3       1 C5M        -0.0389
     12 S12         4.2030   17.2300   47.9390 S.o2      1 C5M         0.0570
     13 O13         4.0220   16.8710   49.3090 O.2       1 C5M        -0.1539
     14 O14         4.5370   16.2980   46.9200 O.2       1 C5M        -0.1539
     15 N15         5.4440   18.3200   47.9630 N.am      1 C5M        -0.2477
     16 C16         5.3140   19.6270   48.6190 C.3       1 C5M         0.0577
     17 C17         6.1020   19.6390   49.9370 C.3       1 C5M         0.1161
     18 O18         7.2640   18.8160   49.7690 O.3       1 C5M        -0.3844
     19 C19         6.5520   21.0670   50.2930 C.3       1 C5M         0.0163
     20 C20         5.3820   22.0650   50.2140 C.3       1 C5M         0.0265
     21 C21         4.1580   21.6180   50.9930 C.ar      1 C5M        -0.0376
     22 C22         2.9040   21.6460   50.3780 C.ar      1 C5M        -0.0601
     23 C23         1.7710   21.2450   51.0750 C.ar      1 C5M        -0.0686
     24 C24         1.8740   20.8340   52.3910 C.ar      1 C5M        -0.0687
     25 C25         3.1210   20.8140   53.0130 C.ar      1 C5M        -0.0686
     26 C26         4.2610   21.2030   52.3170 C.ar      1 C5M        -0.0601
     27 N27         7.5820   21.5040   49.3400 N.4       1 C5M         0.2445
     28 C28         8.5610   22.4730   49.9460 C.3       1 C5M         0.0006
     29 C29         9.4930   22.8240   48.8190 C.ar      1 C5M         0.0018
     30 C30        10.5170   21.9390   48.4950 C.ar      1 C5M        -0.0552
     31 C31        11.3730   22.2060   47.4180 C.ar      1 C5M        -0.0679
     32 C32        11.1660   23.3680   46.6650 C.ar      1 C5M        -0.0548
     33 C33        10.1310   24.2570   46.9740 C.ar      1 C5M         0.0339
     34 CL34        9.9160   25.7210   46.0220 Cl        1 C5M        -0.0725
     35 C35         9.2900   23.9830   48.0660 C.ar      1 C5M        -0.0414
     36 H1         -2.6298   20.4798   46.7167 H         1 C5M         0.0574
     37 H2         -1.3734   20.4573   48.0002 H         1 C5M         0.0574
     38 H3         -1.9512   18.9156   47.2818 H         1 C5M         0.0574
     39 H4         -0.3812   18.9842   48.4456 H         1 C5M         0.0407
     40 H5          0.5598   17.9730   50.1259 H         1 C5M         0.0376
     41 H6          2.3385   18.1625   50.2902 H         1 C5M         0.0376
     42 H7          1.6522   16.6183   49.6809 H         1 C5M         0.0376
     43 H8          4.6272   17.9198   45.6679 H         1 C5M         0.0373
     44 H9          4.1725   19.4657   44.8744 H         1 C5M         0.0373
     45 H10         3.4899   17.9151   44.2777 H         1 C5M         0.0373
     46 H11         0.4735   20.3351   44.1161 H         1 C5M         0.0340
     47 H12         1.5637   19.0282   43.5417 H         1 C5M         0.0340
     48 H13         2.2528   20.5810   44.1252 H         1 C5M         0.0340
     49 H14         6.3078   18.0830   47.5184 H         1 C5M         0.1670
     50 H15         4.2524   19.8245   48.8285 H         1 C5M         0.0503
     51 H16         5.7080   20.4088   47.9529 H         1 C5M         0.0503
     52 H17         5.4728   19.2408   50.7466 H         1 C5M         0.0668
     53 H18         7.7981   19.1641   49.0647 H         1 C5M         0.2101
     54 H19         6.9640   21.0694   51.3129 H         1 C5M         0.0901
     55 H20         5.0983   22.1877   49.1583 H         1 C5M         0.0482
     56 H21         5.7192   23.0311   50.6178 H         1 C5M         0.0482
     57 H22         2.8144   21.9824   49.3514 H         1 C5M         0.0557
     58 H23         0.8037   21.2544   50.5857 H         1 C5M         0.0599
     59 H24         0.9886   20.5286   52.9367 H         1 C5M         0.0559
     60 H25         3.2031   20.4934   54.0453 H         1 C5M         0.0599
     61 H26         5.2284   21.1828   52.8056 H         1 C5M         0.0557
     62 H27         7.1290   21.9502   48.5578 H         1 C5M         0.2033
     63 H28         8.0878   20.6938   49.0179 H         1 C5M         0.2033
     64 H29         9.1121   22.0021   50.7734 H         1 C5M         0.0980
     65 H30         8.0421   23.3701   50.3146 H         1 C5M         0.0980
     66 H31        10.6535   21.0366   49.0799 H         1 C5M         0.0560
     67 H32        12.1803   21.5255   47.1725 H         1 C5M         0.0599
     68 H33        11.8196   23.5827   45.8273 H         1 C5M         0.0565
     69 H34         8.4888   24.6667   48.3224 H         1 C5M         0.0564
@<TRIPOS>BOND
     1    1    2 1  
     2    2    3 1  
     3    3    4 ar 
     4    3   10 ar 
     5    4    5 ar 
     6    5    6 1  
     7    5    7 ar 
     8    7    8 ar 
     9    7   12 1  
    10    8    9 1  
    11    8   10 ar 
    12   10   11 1  
    13   12   13 2  
    14   12   14 2  
    15   12   15 am 
    16   15   16 1  
    17   16   17 1  
    18   17   18 1  
    19   17   19 1  
    20   19   20 1  
    21   19   27 1  
    22   20   21 1  
    23   21   22 ar 
    24   21   26 ar 
    25   22   23 ar 
    26   23   24 ar 
    27   24   25 ar 
    28   25   26 ar 
    29   27   28 1  
    30   28   29 1  
    31   29   30 ar 
    32   29   35 ar 
    33   30   31 ar 
    34   31   32 ar 
    35   32   33 ar 
    36   33   34 1  
    37   33   35 ar 
    38    1   36 1  
    39    1   37 1  
    40    1   38 1  
    41    4   39 1  
    42    6   40 1  
    43    6   41 1  
    44    6   42 1  
    45    9   43 1  
    46    9   44 1  
    47    9   45 1  
    48   11   46 1  
    49   11   47 1  
    50   11   48 1  
    51   15   49 1  
    52   16   50 1  
    53   16   51 1  
    54   17   52 1  
    55   18   53 1  
    56   19   54 1  
    57   20   55 1  
    58   20   56 1  
    59   22   57 1  
    60   23   58 1  
    61   24   59 1  
    62   25   60 1  
    63   26   61 1  
    64   27   62 1  
    65   27   63 1  
    66   28   64 1  
    67   28   65 1  
    68   30   66 1  
    69   31   67 1  
    70   32   68 1  
    71   35   69 1  
@<TRIPOS>SUBSTRUCTURE
     1 C5M         1

