### 
### Created by X-TOOL on Mon Sep 10 21:12:54 2018
### 

@<TRIPOS>MOLECULE
2c8y_ligand
   49    51     1     0     0
SMALL
GAST_HUCK


@<TRIPOS>ATOM
      1 N1          7.8290   21.3060   51.8100 N.4       1 C3M         0.2241
      2 C2          6.5520   20.7070   51.4020 C.3       1 C3M         0.0132
      3 C3          5.5980   21.8240   51.0070 C.3       1 C3M         0.0265
      4 C4          4.1400   21.4720   51.1780 C.ar      1 C3M        -0.0376
      5 C5          3.2480   21.7580   50.1590 C.ar      1 C3M        -0.0601
      6 C6          1.9090   21.4360   50.3080 C.ar      1 C3M        -0.0686
      7 C7          1.4470   20.8490   51.4720 C.ar      1 C3M        -0.0687
      8 C8          2.3350   20.5700   52.4840 C.ar      1 C3M        -0.0686
      9 C9          3.6700   20.8980   52.3560 C.ar      1 C3M        -0.0601
     10 C10         6.8550   19.8610   50.1830 C.3       1 C3M         0.1160
     11 O11         7.2100   20.6720   49.0570 O.3       1 C3M        -0.3844
     12 C12         5.5920   19.1030   49.8010 C.3       1 C3M         0.0580
     13 N13         6.0100   18.1070   48.8150 N.am      1 C3M        -0.2447
     14 S14         4.8770   17.0970   48.1920 S.o2      1 C3M         0.0683
     15 O15         5.5170   16.4420   47.1000 O.2       1 C3M        -0.1503
     16 O16         4.3790   16.4480   49.3550 O.2       1 C3M        -0.1503
     17 C17         3.5760   18.0140   47.4150 C.ar      1 C3M         0.1087
     18 C18         3.8680   18.6480   46.1920 C.ar      1 C3M        -0.0345
     19 C19         2.9430   19.3900   45.4940 C.ar      1 C3M        -0.0522
     20 C20         1.6450   19.5130   46.0280 C.ar      1 C3M        -0.0178
     21 C21         0.6610   20.2400   45.3460 C.ar      1 C3M        -0.0540
     22 C22        -0.5900   20.3330   45.8960 C.ar      1 C3M        -0.0612
     23 C23        -0.9090   19.7170   47.1070 C.ar      1 C3M        -0.0612
     24 C24         0.0310   18.9980   47.7880 C.ar      1 C3M        -0.0540
     25 C25         1.3310   18.8720   47.2810 C.ar      1 C3M        -0.0160
     26 C26         2.3210   18.1160   47.9720 C.ar      1 C3M        -0.0274
     27 H1          7.6845   21.8837   52.6233 H         1 C3M         0.1999
     28 H2          8.1912   21.8701   51.0573 H         1 C3M         0.1999
     29 H3          8.4879   20.5755   52.0296 H         1 C3M         0.1999
     30 H4          6.1217   20.0975   52.2103 H         1 C3M         0.0900
     31 H5          5.7729   22.0711   49.9495 H         1 C3M         0.0482
     32 H6          5.8174   22.7035   51.6302 H         1 C3M         0.0482
     33 H7          3.5958   22.2319   49.2482 H         1 C3M         0.0557
     34 H8          1.2148   21.6466   49.5025 H         1 C3M         0.0599
     35 H9          0.3955   20.6113   51.5853 H         1 C3M         0.0559
     36 H10         1.9841   20.0886   53.3897 H         1 C3M         0.0599
     37 H11         4.3541   20.7080   53.1751 H         1 C3M         0.0557
     38 H12         7.6714   19.1605   50.4127 H         1 C3M         0.0668
     39 H13         7.3935   20.1132   48.3109 H         1 C3M         0.2101
     40 H14         4.8512   19.7883   49.3633 H         1 C3M         0.0503
     41 H15         5.1589   18.6101   50.6839 H         1 C3M         0.0503
     42 H16         6.9654   18.0430   48.5268 H         1 C3M         0.1673
     43 H17         4.8664   18.5470   45.7820 H         1 C3M         0.0637
     44 H18         3.2062   19.8677   44.5572 H         1 C3M         0.0624
     45 H19         0.8854   20.7202   44.4004 H         1 C3M         0.0624
     46 H20        -1.3533   20.9007   45.3763 H         1 C3M         0.0618
     47 H21        -1.9109   19.8101   47.5101 H         1 C3M         0.0618
     48 H22        -0.2300   18.5220   48.7263 H         1 C3M         0.0624
     49 H23         2.0916   17.6322   48.9145 H         1 C3M         0.0643
@<TRIPOS>BOND
     1    1    2 1  
     2    2    3 1  
     3    2   10 1  
     4    3    4 1  
     5    4    5 ar 
     6    4    9 ar 
     7    5    6 ar 
     8    6    7 ar 
     9    7    8 ar 
    10    8    9 ar 
    11   10   11 1  
    12   10   12 1  
    13   12   13 1  
    14   13   14 am 
    15   14   15 2  
    16   14   16 2  
    17   14   17 1  
    18   17   18 ar 
    19   17   26 ar 
    20   18   19 ar 
    21   19   20 ar 
    22   20   21 ar 
    23   20   25 ar 
    24   21   22 ar 
    25   22   23 ar 
    26   23   24 ar 
    27   24   25 ar 
    28   25   26 ar 
    29    1   27 1  
    30    1   28 1  
    31    1   29 1  
    32    2   30 1  
    33    3   31 1  
    34    3   32 1  
    35    5   33 1  
    36    6   34 1  
    37    7   35 1  
    38    8   36 1  
    39    9   37 1  
    40   10   38 1  
    41   11   39 1  
    42   12   40 1  
    43   12   41 1  
    44   13   42 1  
    45   18   43 1  
    46   19   44 1  
    47   21   45 1  
    48   22   46 1  
    49   23   47 1  
    50   24   48 1  
    51   26   49 1  
@<TRIPOS>SUBSTRUCTURE
     1 C3M         1

