### 
### Created by X-TOOL on Mon Sep 10 21:12:54 2018
### 

@<TRIPOS>MOLECULE
2c90_ligand
   17    18     1     0     0
SMALL
GAST_HUCK


@<TRIPOS>ATOM
      1 CL1         9.9760   25.5610   46.4750 Cl        1 C1M        -0.0765
      2 C2          9.9650   24.1570   47.5110 C.ar      1 C1M         0.0338
      3 C3         10.8720   23.1340   47.2980 C.ar      1 C1M        -0.0511
      4 C4         10.8860   22.0180   48.1340 C.ar      1 C1M        -0.0226
      5 C5          9.9980   21.9220   49.2030 C.ar      1 C1M         0.1268
      6 C6          9.0890   22.9600   49.4100 C.ar      1 C1M        -0.0226
      7 C7          9.0740   24.0610   48.5720 C.ar      1 C1M        -0.0511
      8 N8          9.9980   20.7760   50.0470 N.pl3     1 C1M        -0.0953
      9 C9          9.5390   19.5300   49.7640 C.2       1 C1M         0.1674
     10 N10         9.7150   18.7740   50.8170 N.2       1 C1M        -0.2066
     11 N11        10.2770   19.4440   51.7450 N.2       1 C1M        -0.1372
     12 N12        10.4720   20.6610   51.3670 N.2       1 C1M        -0.0480
     13 H1         11.5759   23.2005   46.4763 H         1 C1M         0.0608
     14 H2         11.5942   21.2181   47.9504 H         1 C1M         0.0594
     15 H3          8.3880   22.9034   50.2349 H         1 C1M         0.0594
     16 H4          8.3591   24.8572   48.7455 H         1 C1M         0.0608
     17 H5          9.0986   19.2133   48.8197 H         1 C1M         0.1427
@<TRIPOS>BOND
     1    1    2 1  
     2    2    3 ar 
     3    2    7 ar 
     4    3    4 ar 
     5    4    5 ar 
     6    5    6 ar 
     7    5    8 1  
     8    6    7 ar 
     9    8    9 1  
    10    8   12 1  
    11    9   10 2  
    12   10   11 1  
    13   11   12 2  
    14    3   13 1  
    15    4   14 1  
    16    6   15 1  
    17    7   16 1  
    18    9   17 1  
@<TRIPOS>SUBSTRUCTURE
     1 C1M         1

