### 
### Created by X-TOOL on Mon Sep 10 21:12:53 2018
### 

@<TRIPOS>MOLECULE
2c93_ligand
   56    57     1     0     0
SMALL
GAST_HUCK


@<TRIPOS>ATOM
      1 C1         -1.8330   20.0490   47.2240 C.3       1 C4M         0.0574
      2 O2         -0.8290   20.0480   46.1850 O.3       1 C4M        -0.3285
      3 C3          0.3370   19.4530   46.5920 C.ar      1 C4M         0.0795
      4 C4          0.4510   18.9580   47.8750 C.ar      1 C4M        -0.0435
      5 C5          1.6070   18.3380   48.3180 C.ar      1 C4M        -0.0415
      6 C6          1.5880   17.8430   49.7510 C.3       1 C4M        -0.0363
      7 C7          2.6950   18.1840   47.4680 C.ar      1 C4M         0.0927
      8 C8          2.5960   18.6820   46.1640 C.ar      1 C4M        -0.0328
      9 C9          3.7550   18.5470   45.1910 C.3       1 C4M        -0.0358
     10 C10         1.4220   19.3060   45.7260 C.ar      1 C4M        -0.0206
     11 C11         1.3340   19.8280   44.3090 C.3       1 C4M        -0.0389
     12 S12         4.1770   17.3780   48.0280 S.o2      1 C4M         0.0570
     13 O13         3.8650   16.8310   49.3140 O.2       1 C4M        -0.1539
     14 O14         4.6200   16.5880   46.9410 O.2       1 C4M        -0.1539
     15 N15         5.3310   18.5010   48.3520 N.am      1 C4M        -0.2477
     16 C16         5.1460   19.4700   49.4370 C.3       1 C4M         0.0577
     17 C17         6.5320   20.0000   49.8430 C.3       1 C4M         0.1160
     18 O18         7.0700   20.8400   48.8080 O.3       1 C4M        -0.3844
     19 C19         6.4260   20.7730   51.1530 C.3       1 C4M         0.0132
     20 N20         7.7580   21.2450   51.5190 N.4       1 C4M         0.2241
     21 C21         5.5150   21.9950   50.9950 C.3       1 C4M         0.0265
     22 C22         4.0580   21.6780   51.2780 C.ar      1 C4M        -0.0376
     23 C23         3.0770   22.0770   50.3660 C.ar      1 C4M        -0.0601
     24 C24         1.7380   21.8160   50.5950 C.ar      1 C4M        -0.0686
     25 C25         1.3630   21.1550   51.7520 C.ar      1 C4M        -0.0687
     26 C26         2.3290   20.7500   52.6610 C.ar      1 C4M        -0.0686
     27 C27         3.6780   21.0130   52.4340 C.ar      1 C4M        -0.0601
     28 H1         -2.7464   20.5351   46.8507 H         1 C4M         0.0574
     29 H2         -1.4555   20.5998   48.0981 H         1 C4M         0.0574
     30 H3         -2.0615   19.0129   47.5141 H         1 C4M         0.0574
     31 H4         -0.3876   19.0573   48.5547 H         1 C4M         0.0407
     32 H5          0.6180   18.0852   50.2097 H         1 C4M         0.0376
     33 H6          2.3940   18.3313   50.3183 H         1 C4M         0.0376
     34 H7          1.7381   16.7534   49.7646 H         1 C4M         0.0376
     35 H8          4.5938   18.0380   45.6883 H         1 C4M         0.0373
     36 H9          4.0757   19.5464   44.8618 H         1 C4M         0.0373
     37 H10         3.4346   17.9588   44.3184 H         1 C4M         0.0373
     38 H11         0.3456   20.2826   44.1465 H         1 C4M         0.0340
     39 H12         1.4760   18.9969   43.6026 H         1 C4M         0.0340
     40 H13         2.1163   20.5842   44.1475 H         1 C4M         0.0340
     41 H14         6.1674   18.5241   47.8044 H         1 C4M         0.1670
     42 H15         4.6671   18.9799   50.2975 H         1 C4M         0.0503
     43 H16         4.5150   20.3019   49.0909 H         1 C4M         0.0503
     44 H17         7.2088   19.1454   49.9900 H         1 C4M         0.0668
     45 H18         7.1529   20.3382   48.0056 H         1 C4M         0.2101
     46 H19         6.0281   20.1141   51.9388 H         1 C4M         0.0900
     47 H20         7.7062   21.7591   52.3845 H         1 C4M         0.1999
     48 H21         8.1131   21.8461   50.7919 H         1 C4M         0.1999
     49 H22         8.3745   20.4558   51.6334 H         1 C4M         0.1999
     50 H23         5.6005   22.3670   49.9634 H         1 C4M         0.0482
     51 H24         5.8480   22.7754   51.6950 H         1 C4M         0.0482
     52 H25         3.3706   22.6003   49.4632 H         1 C4M         0.0557
     53 H26         0.9893   22.1262   49.8751 H         1 C4M         0.0599
     54 H27         0.3158   20.9542   51.9473 H         1 C4M         0.0559
     55 H28         2.0305   20.2221   53.5595 H         1 C4M         0.0599
     56 H29         4.4246   20.7004   53.1551 H         1 C4M         0.0557
@<TRIPOS>BOND
     1    1    2 1  
     2    2    3 1  
     3    3    4 ar 
     4    3   10 ar 
     5    4    5 ar 
     6    5    6 1  
     7    5    7 ar 
     8    7    8 ar 
     9    7   12 1  
    10    8    9 1  
    11    8   10 ar 
    12   10   11 1  
    13   12   13 2  
    14   12   14 2  
    15   12   15 am 
    16   15   16 1  
    17   16   17 1  
    18   17   18 1  
    19   17   19 1  
    20   19   20 1  
    21   19   21 1  
    22   21   22 1  
    23   22   23 ar 
    24   22   27 ar 
    25   23   24 ar 
    26   24   25 ar 
    27   25   26 ar 
    28   26   27 ar 
    29    1   28 1  
    30    1   29 1  
    31    1   30 1  
    32    4   31 1  
    33    6   32 1  
    34    6   33 1  
    35    6   34 1  
    36    9   35 1  
    37    9   36 1  
    38    9   37 1  
    39   11   38 1  
    40   11   39 1  
    41   11   40 1  
    42   15   41 1  
    43   16   42 1  
    44   16   43 1  
    45   17   44 1  
    46   18   45 1  
    47   19   46 1  
    48   20   47 1  
    49   20   48 1  
    50   20   49 1  
    51   21   50 1  
    52   21   51 1  
    53   23   52 1  
    54   24   53 1  
    55   25   54 1  
    56   26   55 1  
    57   27   56 1  
@<TRIPOS>SUBSTRUCTURE
     1 C4M         1

