### 
### Created by X-TOOL on Mon Sep 10 21:12:55 2018
### 

@<TRIPOS>MOLECULE
2c9b_ligand
   35    36     1     0     0
SMALL
GAST_HUCK


@<TRIPOS>ATOM
      1 O1        -19.5360   -2.4110    4.9140 O.2       1 PUG        -0.3876
      2 C2        -19.7090   -1.7590    3.8630 C.2       1 PUG         0.3156
      3 N3        -19.9330   -2.4290    2.7120 N.am      1 PUG        -0.1906
      4 C4        -20.1210   -1.7670    1.5520 C.2       1 PUG         0.1999
      5 O2        -20.3290   -2.4070    0.4980 O.2       1 PUG        -0.4201
      6 N1        -19.6720   -0.4020    3.8990 N.am      1 PUG        -0.1946
      7 C8        -19.8500    0.3630    2.7900 C.2       1 PUG         0.1988
      8 C9        -20.0810   -0.2770    1.5660 C.2       1 PUG         0.1464
      9 N5        -20.2270    0.6640    0.6050 N.am      1 PUG        -0.2491
     10 N7        -19.8460    1.6950    2.5800 N.am      1 PUG        -0.1807
     11 C6        -20.0810    1.8210    1.2730 C.2       1 PUG         0.2969
     12 O4        -20.1590    2.9660    0.6830 O.2       1 PUG        -0.4083
     13 C10       -19.6610    2.7980    3.5360 C.3       1 PUG         0.0889
     14 C11       -18.5680    2.5670    4.5840 C.3       1 PUG         0.1096
     15 O19       -17.4110    1.9730    3.9820 O.3       1 PUG        -0.3865
     16 C12       -18.1550    3.8290    5.3560 C.3       1 PUG         0.1114
     17 O21       -18.9030    3.8660    6.5810 O.3       1 PUG        -0.3865
     18 C13       -18.3300    5.1530    4.5960 C.3       1 PUG         0.1065
     19 O23       -17.4490    5.2170    3.4690 O.3       1 PUG        -0.3869
     20 C14       -18.0790    6.3720    5.4840 C.3       1 PUG         0.0727
     21 O26       -16.7020    6.4600    5.8780 O.3       1 PUG        -0.3924
     22 H1        -19.9598   -3.4286    2.7199 H         1 PUG         0.2244
     23 H2        -19.5075    0.0516    4.7749 H         1 PUG         0.2306
     24 H3        -20.4020    0.5304   -0.3705 H         1 PUG         0.2070
     25 H4        -20.6129    2.9556    4.0642 H         1 PUG         0.0624
     26 H5        -19.4030    3.7035    2.9672 H         1 PUG         0.0624
     27 H6        -18.9718    1.8543    5.3182 H         1 PUG         0.0646
     28 H7        -16.7447    1.8372    4.6454 H         1 PUG         0.2100
     29 H8        -17.0866    3.7334    5.5995 H         1 PUG         0.0647
     30 H9        -19.8318    3.8917    6.3830 H         1 PUG         0.2100
     31 H10       -19.3673    5.1985    4.2328 H         1 PUG         0.0643
     32 H11       -17.5753    6.0425    3.0162 H         1 PUG         0.2100
     33 H12       -18.7044    6.2927    6.3854 H         1 PUG         0.0584
     34 H13       -18.3506    7.2815    4.9281 H         1 PUG         0.0584
     35 H14       -16.4620    5.6792    6.3630 H         1 PUG         0.2095
@<TRIPOS>BOND
     1    1    2 2  
     2    2    3 am 
     3    2    6 am 
     4    3    4 am 
     5    4    5 2  
     6    4    8 1  
     7    6    7 am 
     8    7    8 2  
     9    7   10 1  
    10    8    9 am 
    11    9   11 am 
    12   10   11 am 
    13   10   13 1  
    14   11   12 2  
    15   13   14 1  
    16   14   15 1  
    17   14   16 1  
    18   16   17 1  
    19   16   18 1  
    20   18   19 1  
    21   18   20 1  
    22   20   21 1  
    23    3   22 1  
    24    6   23 1  
    25    9   24 1  
    26   13   25 1  
    27   13   26 1  
    28   14   27 1  
    29   15   28 1  
    30   16   29 1  
    31   17   30 1  
    32   18   31 1  
    33   19   32 1  
    34   20   33 1  
    35   20   34 1  
    36   21   35 1  
@<TRIPOS>SUBSTRUCTURE
     1 PUG         1

