### 
### Created by X-TOOL on Mon Sep 10 21:12:54 2018
### 

@<TRIPOS>MOLECULE
2ca8_ligand
   36    35     1     0     0
SMALL
GAST_HUCK


@<TRIPOS>ATOM
      1 O12         3.0620   13.7770   43.1150 O.co2     1 GSH        -0.5643
      2 C1          2.4810   12.6830   43.3080 C.2       1 GSH         0.0846
      3 O11         1.3950   12.4470   42.7320 O.co2     1 GSH        -0.5643
      4 CA1         2.9750   11.5810   44.2050 C.3       1 GSH         0.0304
      5 N1          2.3080   11.7480   45.4910 N.4       1 GSH         0.2328
      6 CB1         4.4960   11.3880   44.3380 C.3       1 GSH         0.0193
      7 CG1         5.2740   11.5260   43.0410 C.3       1 GSH         0.0441
      8 CD1         6.2530   10.3940   42.8220 C.2       1 GSH         0.1785
      9 OE1         6.0640    9.1260   43.3980 O.2       1 GSH        -0.3969
     10 N2          7.2810   10.6760   42.0320 N.am      1 GSH        -0.2648
     11 CA2         8.1550    9.6890   41.4380 C.3       1 GSH         0.1395
     12 CB2         7.9220    9.5420   39.9430 C.3       1 GSH         0.0311
     13 SG2         6.2420    8.9890   39.5710 S.3       1 GSH        -0.1735
     14 C2          9.5330   10.2040   41.5850 C.2       1 GSH         0.2039
     15 O2          9.6970   11.5960   41.4990 O.2       1 GSH        -0.3944
     16 N3         10.5000    9.3110   41.7800 N.am      1 GSH        -0.2722
     17 CA3        11.8710    9.5590   41.3660 C.3       1 GSH         0.0833
     18 C3         12.6540   10.1250   42.5210 C.2       1 GSH         0.0570
     19 O31        13.7860   10.6260   42.3610 O.co2     1 GSH        -0.5669
     20 O32        12.1630   10.1010   43.6650 O.co2     1 GSH        -0.5669
     21 H1          2.6058   10.6417   43.7676 H         1 GSH         0.1026
     22 H2          2.6132   11.0254   46.1241 H         1 GSH         0.2010
     23 H3          1.3103   11.6831   45.3630 H         1 GSH         0.2010
     24 H4          2.5395   12.6508   45.8749 H         1 GSH         0.2010
     25 H5          4.6787   10.3807   44.7405 H         1 GSH         0.0363
     26 H6          4.8753   12.1400   45.0456 H         1 GSH         0.0363
     27 H7          5.8320   12.4736   43.0649 H         1 GSH         0.0505
     28 H8          4.5612   11.5412   42.2034 H         1 GSH         0.0505
     29 H9          7.4642   11.6388   41.8334 H         1 GSH         0.1883
     30 H10         8.0312    8.7190   41.9417 H         1 GSH         0.0808
     31 H11         8.6349    8.8059   39.5431 H         1 GSH         0.0422
     32 H12         8.0905   10.5157   39.4598 H         1 GSH         0.0422
     33 H13         6.1305    8.9049   38.5727 H         1 GSH         0.1019
     34 H14        10.2768    8.4435   42.2246 H         1 GSH         0.1873
     35 H15        11.8774   10.2771   40.5328 H         1 GSH         0.0689
     36 H16        12.3312    8.6147   41.0398 H         1 GSH         0.0689
@<TRIPOS>BOND
     1    1    2 ar 
     2    2    3 ar 
     3    2    4 1  
     4    4    5 1  
     5    4    6 1  
     6    6    7 1  
     7    7    8 1  
     8    8    9 2  
     9    8   10 am 
    10   10   11 1  
    11   11   12 1  
    12   11   14 1  
    13   12   13 1  
    14   14   15 2  
    15   14   16 am 
    16   16   17 1  
    17   17   18 1  
    18   18   19 ar 
    19   18   20 ar 
    20    4   21 1  
    21    5   22 1  
    22    5   23 1  
    23    5   24 1  
    24    6   25 1  
    25    6   26 1  
    26    7   27 1  
    27    7   28 1  
    28   10   29 1  
    29   11   30 1  
    30   12   31 1  
    31   12   32 1  
    32   13   33 1  
    33   16   34 1  
    34   17   35 1  
    35   17   36 1  
@<TRIPOS>SUBSTRUCTURE
     1 GSH         1

