### 
### Created by X-TOOL on Mon Sep 10 21:12:54 2018
### 

@<TRIPOS>MOLECULE
2cbj_ligand
   44    45     1     0     0
SMALL
GAST_HUCK


@<TRIPOS>ATOM
      1 CAH        36.3610   41.1260   22.3470 C.3       1 OAN         0.0258
      2 CAG        34.8320   41.1180   22.1590 C.2       1 OAN         0.1755
      3 OAN        34.1590   40.1370   22.4990 O.2       1 OAN        -0.3972
      4 NAI        34.3300   42.2390   21.6190 N.am      1 OAN        -0.2641
      5 CAB        32.8900   42.4920   21.4040 C.3       1 OAN         0.1483
      6 CAC        32.2170   42.7650   22.7850 C.3       1 OAN         0.1223
      7 OAJ        32.2670   44.1500   23.1080 O.3       1 OAN        -0.3842
      8 CAD        30.7780   42.2830   22.8100 C.3       1 OAN         0.1187
      9 OAK        30.1620   42.6060   24.0510 O.3       1 OAN        -0.3859
     10 CAE        30.7730   40.7580   22.5960 C.3       1 OAN         0.1375
     11 CAF        29.4330   39.9750   22.7330 C.3       1 OAN         0.0780
     12 OAM        28.3700   40.6860   22.0980 O.3       1 OAN        -0.3919
     13 OAL        31.3210   40.4870   21.2800 O.3       1 OAN        -0.2871
     14 CAA        32.1910   41.3470   20.6590 C.2       1 OAN         0.1893
     15 NAY        32.4020   41.1960   19.3420 N.2       1 OAN        -0.1541
     16 OAQ        31.8010   40.2090   18.5730 O.3       1 OAN        -0.1506
     17 CAP        31.1530   40.6970   17.4770 C.2       1 OAN         0.3788
     18 OAR        31.5130   41.7790   16.9930 O.2       1 OAN        -0.3643
     19 NAO        30.1400   39.9400   16.9710 N.am      1 OAN        -0.2057
     20 CAS        29.3650   40.2860   15.8890 C.ar      1 OAN         0.0683
     21 CAT        29.8740   40.9900   14.7690 C.ar      1 OAN        -0.0414
     22 CAU        29.0530   41.3450   13.6810 C.ar      1 OAN        -0.0756
     23 CAV        27.7010   41.0000   13.6980 C.ar      1 OAN        -0.0773
     24 CAW        27.1720   40.2930   14.7890 C.ar      1 OAN        -0.0756
     25 CAX        28.0010   39.9390   15.8650 C.ar      1 OAN        -0.0414
     26 H1         36.7699   42.0809   21.9852 H         1 OAN         0.0467
     27 H2         36.8050   40.2972   21.7760 H         1 OAN         0.0467
     28 H3         36.5999   41.0056   23.4140 H         1 OAN         0.0467
     29 H4         34.9744   42.9522   21.3431 H         1 OAN         0.1888
     30 H5         32.7919   43.3972   20.7868 H         1 OAN         0.0821
     31 H6         32.7781   42.2105   23.5516 H         1 OAN         0.0672
     32 H7         31.8525   44.2926   23.9508 H         1 OAN         0.2103
     33 H8         30.2181   42.7678   21.9966 H         1 OAN         0.0653
     34 H9         29.2638   42.2968   24.0473 H         1 OAN         0.2100
     35 H10        31.4538   40.3383   23.3512 H         1 OAN         0.0708
     36 H11        29.1962   39.8470   23.7995 H         1 OAN         0.0588
     37 H12        29.5409   38.9877   22.2602 H         1 OAN         0.0588
     38 H13        28.2726   41.5384   22.5059 H         1 OAN         0.2095
     39 H14        29.9454   39.0678   17.4197 H         1 OAN         0.2276
     40 H15        30.9230   41.2624   14.7493 H         1 OAN         0.0501
     41 H16        29.4685   41.8825   12.8363 H         1 OAN         0.0577
     42 H17        27.0598   41.2778   12.8693 H         1 OAN         0.0487
     43 H18        26.1229   40.0203   14.8007 H         1 OAN         0.0577
     44 H19        27.5810   39.3854   16.6970 H         1 OAN         0.0501
@<TRIPOS>BOND
     1    1    2 1  
     2    2    3 2  
     3    2    4 am 
     4    4    5 1  
     5    5    6 1  
     6    5   14 1  
     7    6    7 1  
     8    6    8 1  
     9    8    9 1  
    10    8   10 1  
    11   10   11 1  
    12   10   13 1  
    13   11   12 1  
    14   13   14 1  
    15   14   15 2  
    16   15   16 1  
    17   16   17 1  
    18   17   18 2  
    19   17   19 am 
    20   19   20 1  
    21   20   21 ar 
    22   20   25 ar 
    23   21   22 ar 
    24   22   23 ar 
    25   23   24 ar 
    26   24   25 ar 
    27    1   26 1  
    28    1   27 1  
    29    1   28 1  
    30    4   29 1  
    31    5   30 1  
    32    6   31 1  
    33    7   32 1  
    34    8   33 1  
    35    9   34 1  
    36   10   35 1  
    37   11   36 1  
    38   11   37 1  
    39   12   38 1  
    40   19   39 1  
    41   21   40 1  
    42   22   41 1  
    43   23   42 1  
    44   24   43 1  
    45   25   44 1  
@<TRIPOS>SUBSTRUCTURE
     1 OAN         1

