### 
### Created by X-TOOL on Mon Sep 10 21:12:47 2018
### 

@<TRIPOS>MOLECULE
2cbr_ligand
   50    52     1     0     0
SMALL
GAST_HUCK


@<TRIPOS>ATOM
      1 C1         29.0760   81.9550    5.4700 C.3       1 A80        -0.0352
      2 C2         29.3930   82.3310    4.0090 C.3       1 A80        -0.0773
      3 C3         28.4650   83.4730    3.4930 C.3       1 A80        -0.0885
      4 C4         27.0040   83.0070    3.3910 C.3       1 A80        -0.0590
      5 C5         26.5340   82.2560    4.6970 C.ar      1 A80        -0.0619
      6 C6         25.1590   82.0750    4.9840 C.ar      1 A80        -0.0307
      7 C7         24.7380   81.4320    6.1560 C.ar      1 A80         0.0206
      8 C8         25.6800   80.9390    7.1100 C.ar      1 A80         0.1428
      9 C9         27.0620   81.1260    6.8810 C.ar      1 A80         0.0229
     10 C10        27.5330   81.7750    5.7020 C.ar      1 A80        -0.0407
     11 N11        25.2850   80.2390    8.3010 N.am      1 A80        -0.1990
     12 C12        24.0040   79.9950    8.7070 C.2       1 A80         0.2533
     13 C13        23.7550   79.2120    9.9550 C.ar      1 A80         0.0630
     14 C14        24.8390   78.7470   10.7410 C.ar      1 A80        -0.0377
     15 C15        24.5880   77.9720   11.8920 C.ar      1 A80        -0.0422
     16 C16        23.2550   77.6580   12.2650 C.ar      1 A80         0.0143
     17 C17        22.1720   78.1300   11.4870 C.ar      1 A80        -0.0422
     18 C18        22.4160   78.8980   10.3380 C.ar      1 A80        -0.0377
     19 C19        22.9980   76.8480   13.4320 C.2       1 A80         0.0654
     20 C20        29.6360   83.0620    6.3710 C.3       1 A80        -0.0795
     21 C21        29.8010   80.6620    5.8440 C.3       1 A80        -0.0795
     22 C22        26.1020   84.2180    3.1130 C.3       1 A80        -0.0944
     23 C23        26.8940   82.0640    2.1860 C.3       1 A80        -0.0944
     24 O24        23.0300   80.3960    8.0500 O.2       1 A80        -0.3609
     25 O25        23.2590   75.6160   13.4090 O.co2     1 A80        -0.5596
     26 O26        22.2950   77.3000   14.3450 O.co2     1 A80        -0.5596
     27 H1         29.2530   81.4437    3.3741 H         1 A80         0.0175
     28 H2         30.4389   82.6657    3.9459 H         1 A80         0.0175
     29 H3         28.8091   83.7914    2.4979 H         1 A80         0.0130
     30 H4         28.5217   84.3223    4.1898 H         1 A80         0.0130
     31 H5         24.4174   82.4411    4.2832 H         1 A80         0.0904
     32 H6         23.6775   81.3064    6.3420 H         1 A80         0.0802
     33 H7         27.7764   80.7698    7.6144 H         1 A80         0.0983
     34 H8         26.0183   79.8978    8.8890 H         1 A80         0.2506
     35 H9         25.8577   78.9864   10.4582 H         1 A80         0.0675
     36 H10        25.4158   77.6149   12.4939 H         1 A80         0.0662
     37 H11        21.1538   77.8985   11.7782 H         1 A80         0.0662
     38 H12        21.5852   79.2539    9.7395 H         1 A80         0.0675
     39 H13        29.4243   82.8206    7.4231 H         1 A80         0.0149
     40 H14        29.1620   84.0203    6.1122 H         1 A80         0.0149
     41 H15        30.7234   83.1393    6.2242 H         1 A80         0.0149
     42 H16        29.4275   79.8381    5.2182 H         1 A80         0.0149
     43 H17        29.6156   80.4309    6.9033 H         1 A80         0.0149
     44 H18        30.8814   80.7867    5.6795 H         1 A80         0.0149
     45 H19        25.0557   83.8866    3.0396 H         1 A80         0.0101
     46 H20        26.4041   84.6907    2.1668 H         1 A80         0.0101
     47 H21        26.1999   84.9442    3.9334 H         1 A80         0.0101
     48 H22        27.5299   81.1818    2.3515 H         1 A80         0.0101
     49 H23        27.2248   82.5893    1.2779 H         1 A80         0.0101
     50 H24        25.8484   81.7446    2.0645 H         1 A80         0.0101
@<TRIPOS>BOND
     1    1    2 1  
     2    1   10 1  
     3    1   20 1  
     4    1   21 1  
     5    2    3 1  
     6    3    4 1  
     7    4    5 1  
     8    4   22 1  
     9    4   23 1  
    10    5    6 ar 
    11    5   10 ar 
    12    6    7 ar 
    13    7    8 ar 
    14    8    9 ar 
    15    8   11 1  
    16    9   10 ar 
    17   11   12 am 
    18   12   13 1  
    19   12   24 2  
    20   13   14 ar 
    21   13   18 ar 
    22   14   15 ar 
    23   15   16 ar 
    24   16   17 ar 
    25   16   19 1  
    26   17   18 ar 
    27   19   25 ar 
    28   19   26 ar 
    29    2   27 1  
    30    2   28 1  
    31    3   29 1  
    32    3   30 1  
    33    6   31 1  
    34    7   32 1  
    35    9   33 1  
    36   11   34 1  
    37   14   35 1  
    38   15   36 1  
    39   17   37 1  
    40   18   38 1  
    41   20   39 1  
    42   20   40 1  
    43   20   41 1  
    44   21   42 1  
    45   21   43 1  
    46   21   44 1  
    47   22   45 1  
    48   22   46 1  
    49   22   47 1  
    50   23   48 1  
    51   23   49 1  
    52   23   50 1  
@<TRIPOS>SUBSTRUCTURE
     1 A80         1

