### 
### Created by X-TOOL on Mon Sep 10 21:12:47 2018
### 

@<TRIPOS>MOLECULE
2cbs_ligand
   54    55     1     0     0
SMALL
GAST_HUCK


@<TRIPOS>ATOM
      1 C1         22.0320   30.5980   16.0950 C.3       1 R13        -0.0403
      2 C2         21.0690   31.2690   15.0880 C.3       1 R13        -0.0839
      3 C3         20.4100   30.2440   14.1100 C.3       1 R13        -0.1002
      4 C4         19.5380   29.1960   14.8440 C.3       1 R13        -0.0760
      5 C5         20.2690   28.6070   16.1040 C.ar      1 R13        -0.0759
      6 C6         19.7760   27.4010   16.7060 C.ar      1 R13        -0.0368
      7 C7         20.4030   26.8550   17.8480 C.ar      1 R13        -0.0094
      8 C8         21.5450   27.4930   18.4030 C.ar      1 R13         0.0489
      9 C9         22.0610   28.6780   17.8210 C.ar      1 R13        -0.0001
     10 C10        21.4400   29.2640   16.6850 C.ar      1 R13        -0.0436
     11 C11        22.2470   26.9180   19.6740 C.2       1 R13         0.0111
     12 C12        21.6600   25.8630   20.3090 C.2       1 R13        -0.0216
     13 C13        22.1540   25.3030   21.4780 C.2       1 R13        -0.0320
     14 C14        21.4580   24.2850   22.1120 C.2       1 R13        -0.0276
     15 C15        21.9040   23.7090   23.3140 C.2       1 R13        -0.0174
     16 C16        21.1190   22.7080   23.9000 C.2       1 R13        -0.0159
     17 C17        21.3750   21.9950   25.1620 C.2       1 R13         0.0541
     18 C18        18.2110   29.8240   15.2730 C.3       1 R13        -0.1050
     19 C19        19.2060   28.0870   13.8430 C.3       1 R13        -0.1050
     20 C20        22.2800   31.6070   17.2230 C.3       1 R13        -0.0835
     21 C21        23.3810   30.3210   15.4280 C.3       1 R13        -0.0835
     22 C22        23.5570   27.5550   20.1970 C.3       1 R13        -0.0148
     23 C23        23.2240   24.1810   23.9910 C.3       1 R13        -0.0230
     24 O1         22.4180   21.3230   25.2820 O.co2     1 R13        -0.5635
     25 O2         20.5490   22.0950   26.0900 O.co2     1 R13        -0.5635
     26 H1         21.6340   32.0054   14.4978 H         1 R13         0.0158
     27 H2         20.2737   31.7813   15.6493 H         1 R13         0.0158
     28 H3         21.2058   29.7183   13.5619 H         1 R13         0.0095
     29 H4         19.7761   30.7935   13.3985 H         1 R13         0.0095
     30 H5         18.9126   26.9034   16.2794 H         1 R13         0.0856
     31 H6         20.0134   25.9503   18.3005 H         1 R13         0.0825
     32 H7         22.9416   29.1437   18.2484 H         1 R13         0.1103
     33 H8         20.7560   25.4380   19.8754 H         1 R13         0.0777
     34 H9         23.0912   25.6639   21.8991 H         1 R13         0.0760
     35 H10        20.5352   23.9197   21.6637 H         1 R13         0.0794
     36 H11        20.2164   22.4249   23.3605 H         1 R13         0.0662
     37 H12        17.6002   29.0712   15.7929 H         1 R13         0.0066
     38 H13        17.6714   30.1839   14.3846 H         1 R13         0.0066
     39 H14        18.4069   30.6685   15.9501 H         1 R13         0.0066
     40 H15        20.1364   27.6061   13.5067 H         1 R13         0.0066
     41 H16        18.6829   28.5191   12.9772 H         1 R13         0.0066
     42 H17        18.5602   27.3387   14.3256 H         1 R13         0.0066
     43 H18        22.9634   31.1674   17.9645 H         1 R13         0.0135
     44 H19        21.3248   31.8572   17.7078 H         1 R13         0.0135
     45 H20        22.7298   32.5201   16.8059 H         1 R13         0.0135
     46 H21        24.0573   29.8442   16.1527 H         1 R13         0.0135
     47 H22        23.8214   31.2685   15.0840 H         1 R13         0.0135
     48 H23        23.2341   29.6512   14.5679 H         1 R13         0.0135
     49 H24        23.8500   28.3850   19.5373 H         1 R13         0.0450
     50 H25        24.3541   26.7971   20.2087 H         1 R13         0.0450
     51 H26        23.3980   27.9357   21.2167 H         1 R13         0.0450
     52 H27        23.6893   24.9674   23.3786 H         1 R13         0.0413
     53 H28        23.9147   23.3297   24.0810 H         1 R13         0.0413
     54 H29        23.0008   24.5795   24.9917 H         1 R13         0.0413
@<TRIPOS>BOND
     1    1   21 1  
     2    1   20 1  
     3    1   10 1  
     4    1    2 1  
     5    2    3 1  
     6    3    4 1  
     7    4   19 1  
     8    4   18 1  
     9    4    5 1  
    10    5   10 ar 
    11    5    6 ar 
    12    6    7 ar 
    13    7    8 ar 
    14    8   11 1  
    15    8    9 ar 
    16    9   10 ar 
    17   11   22 1  
    18   11   12 2  
    19   12   13 1  
    20   13   14 2  
    21   14   15 1  
    22   15   23 1  
    23   15   16 2  
    24   16   17 1  
    25   17   25 ar 
    26   17   24 ar 
    27    2   26 1  
    28    2   27 1  
    29    3   28 1  
    30    3   29 1  
    31    6   30 1  
    32    7   31 1  
    33    9   32 1  
    34   12   33 1  
    35   13   34 1  
    36   14   35 1  
    37   16   36 1  
    38   18   37 1  
    39   18   38 1  
    40   18   39 1  
    41   19   40 1  
    42   19   41 1  
    43   19   42 1  
    44   20   43 1  
    45   20   44 1  
    46   20   45 1  
    47   21   46 1  
    48   21   47 1  
    49   21   48 1  
    50   22   49 1  
    51   22   50 1  
    52   22   51 1  
    53   23   52 1  
    54   23   53 1  
    55   23   54 1  
@<TRIPOS>SUBSTRUCTURE
     1 R13         1

