### 
### Created by X-TOOL on Mon Sep 10 21:12:54 2018
### 

@<TRIPOS>MOLECULE
2cbu_ligand
   29    30     1     0     0
SMALL
GAST_HUCK


@<TRIPOS>ATOM
      1 C1         -0.5070   10.8440   10.6270 C.3       1 CTS        -0.0023
      2 C2          0.3330   11.6930    9.6800 C.3       1 CTS         0.1231
      3 C3         -0.2730   11.9170    8.2970 C.3       1 CTS         0.1171
      4 C4         -1.0850   10.6940    7.8910 C.3       1 CTS         0.1283
      5 C5         -2.3280   10.6590    8.7820 C.3       1 CTS         0.0349
      6 C6         -3.1010    9.3570    8.7240 C.3       1 CTS         0.1050
      7 O2          0.5420   12.9510   10.3040 O.3       1 CTS        -0.3838
      8 O3          0.8230   12.2310    7.4310 O.3       1 CTS        -0.3862
      9 O4         -1.5210   10.8180    6.5390 O.3       1 CTS        -0.3834
     10 O6         -2.2500    8.1960    8.8240 O.3       1 CTS        -0.3859
     11 N          -1.8710   10.5690   10.1820 N.4       1 CTS         0.2431
     12 C7         -3.8450    9.3820   10.0520 C.3       1 CTS         0.0189
     13 C8         -2.8230    9.8740   11.0510 C.3       1 CTS        -0.0288
     14 H1         -0.5646   11.3688   11.5920 H         1 CTS         0.0841
     15 H2          0.0057    9.8804   10.7636 H         1 CTS         0.0841
     16 H3          1.3022   11.1911    9.5431 H         1 CTS         0.0674
     17 H4         -0.9543   12.7801    8.3265 H         1 CTS         0.0649
     18 H5         -0.4875    9.7789    8.0160 H         1 CTS         0.0678
     19 H6         -2.9676   11.5312    8.5817 H         1 CTS         0.0904
     20 H7         -3.7583    9.3043    7.8436 H         1 CTS         0.0653
     21 H8         -0.2891   13.4036   10.3878 H         1 CTS         0.2101
     22 H9          0.4951   12.4000    6.5556 H         1 CTS         0.2100
     23 H10        -2.0674   10.0741    6.3142 H         1 CTS         0.2102
     24 H11        -1.6287    8.1973    8.1054 H         1 CTS         0.2100
     25 H12        -2.1890   11.4941   10.4251 H         1 CTS         0.2039
     26 H13        -4.1962    8.3745   10.3197 H         1 CTS         0.0344
     27 H14        -4.7030   10.0686   10.0038 H         1 CTS         0.0344
     28 H15        -3.2747   10.5610   11.7817 H         1 CTS         0.0815
     29 H16        -2.3451    9.0371   11.5813 H         1 CTS         0.0815
@<TRIPOS>BOND
     1    1    2 1  
     2    1   11 1  
     3    2    3 1  
     4    2    7 1  
     5    3    4 1  
     6    3    8 1  
     7    4    5 1  
     8    4    9 1  
     9    5    6 1  
    10    5   11 1  
    11    6   10 1  
    12    6   12 1  
    13   11   13 1  
    14   12   13 1  
    15    1   14 1  
    16    1   15 1  
    17    2   16 1  
    18    3   17 1  
    19    4   18 1  
    20    5   19 1  
    21    6   20 1  
    22    7   21 1  
    23    8   22 1  
    24    9   23 1  
    25   10   24 1  
    26   11   25 1  
    27   12   26 1  
    28   12   27 1  
    29   13   28 1  
    30   13   29 1  
@<TRIPOS>SUBSTRUCTURE
     1 CTS         1

