### 
### Created by X-TOOL on Mon Sep 10 21:12:54 2018
### 

@<TRIPOS>MOLECULE
2cbv_ligand
   26    27     1     0     0
SMALL
GAST_HUCK


@<TRIPOS>ATOM
      1 O2          0.5890   12.8770   10.4180 O.3       1 CGB        -0.3478
      2 C2          0.0470   11.6450    9.9450 C.3       1 CGB         0.1201
      3 N1         -1.0440   11.1990   10.7870 N.4       1 CGB         0.2572
      4 C8          1.0120   10.4680   10.0590 C.3       1 CGB         0.0273
      5 C7          0.1160    9.2460   10.2830 C.3       1 CGB         0.0008
      6 C6         -1.3000    9.8280   10.4470 C.3       1 CGB         0.0096
      7 C3         -0.4540   11.7630    8.4880 C.3       1 CGB         0.1548
      8 O3          0.6860   12.0520    7.6640 O.3       1 CGB        -0.3808
      9 C4         -1.1870   10.4680    8.0340 C.3       1 CGB         0.1202
     10 O4         -1.9360   10.6990    6.8430 O.3       1 CGB        -0.3861
     11 C5         -2.0920    9.8960    9.1280 C.3       1 CGB         0.1261
     12 O5         -2.5690    8.5760    8.7990 O.3       1 CGB        -0.3835
     13 H1         -0.0895   13.5419   10.4153 H         1 CGB         0.2158
     14 H2         -1.8652   11.7578   10.6152 H         1 CGB         0.2049
     15 H3         -0.7846   11.2725   11.7583 H         1 CGB         0.2049
     16 H4          1.6952   10.6083   10.9096 H         1 CGB         0.0352
     17 H5          1.5964   10.3553    9.1339 H         1 CGB         0.0352
     18 H6          0.4199    8.7025   11.1898 H         1 CGB         0.0324
     19 H7          0.1596    8.5685    9.4175 H         1 CGB         0.0324
     20 H8         -1.8673    9.2886   11.2197 H         1 CGB         0.0878
     21 H9         -1.1644   12.6000    8.4198 H         1 CGB         0.0708
     22 H10         1.0815   12.8680    7.9474 H         1 CGB         0.2103
     23 H11        -0.4183    9.7139    7.8097 H         1 CGB         0.0650
     24 H12        -2.3740    9.8965    6.5851 H         1 CGB         0.2100
     25 H13        -2.9573   10.5630    9.2560 H         1 CGB         0.0677
     26 H14        -1.8285    7.9910    8.6899 H         1 CGB         0.2102
@<TRIPOS>BOND
     1    1    2 1  
     2    2    3 1  
     3    2    4 1  
     4    2    7 1  
     5    3    6 1  
     6    4    5 1  
     7    5    6 1  
     8    6   11 1  
     9    7    8 1  
    10    7    9 1  
    11    9   10 1  
    12    9   11 1  
    13   11   12 1  
    14    1   13 1  
    15    3   14 1  
    16    3   15 1  
    17    4   16 1  
    18    4   17 1  
    19    5   18 1  
    20    5   19 1  
    21    6   20 1  
    22    7   21 1  
    23    8   22 1  
    24    9   23 1  
    25   10   24 1  
    26   11   25 1  
    27   12   26 1  
@<TRIPOS>SUBSTRUCTURE
     1 CGB         1

