### 
### Created by X-TOOL on Mon Sep 10 21:12:54 2018
### 

@<TRIPOS>MOLECULE
2cc7_ligand
   28    30     1     0     0
SMALL
GAST_HUCK


@<TRIPOS>ATOM
      1 N1          0.2070   22.2550   -2.7100 N.am      1 LUM        -0.1878
      2 C2         -0.4750   21.9390   -3.8170 C.2       1 LUM         0.3265
      3 C10         0.7220   21.2480   -1.9280 C.ar      1 LUM         0.1861
      4 O2         -0.9670   22.8540   -4.5400 O.2       1 LUM        -0.3798
      5 N3         -0.6730   20.6330   -4.1860 N.am      1 LUM        -0.1756
      6 C4         -0.2170   19.5850   -3.4590 C.2       1 LUM         0.2563
      7 O4         -0.4190   18.4070   -3.8510 O.2       1 LUM        -0.3726
      8 C4A         0.5090   19.8370   -2.2980 C.ar      1 LUM         0.1810
      9 N5          1.0080   18.8350   -1.5190 N.ar      1 LUM        -0.2620
     10 C5A         1.7090   19.1710   -0.4120 C.ar      1 LUM         0.0563
     11 C6          2.2300   18.1530    0.4000 C.ar      1 LUM        -0.0388
     12 C9A         1.9180   20.5130   -0.0550 C.ar      1 LUM         0.0408
     13 C7          2.9590   18.4810    1.5380 C.ar      1 LUM        -0.0337
     14 C7M         3.5300   17.3450    2.3830 C.3       1 LUM        -0.0303
     15 C8          3.1660   19.7970    1.8860 C.ar      1 LUM        -0.0342
     16 C8M         3.9580   20.1230    3.1450 C.3       1 LUM        -0.0285
     17 C9          2.6350   20.8350    1.1030 C.ar      1 LUM        -0.0427
     18 N10         1.4330   21.5120   -0.8200 N.ar      1 LUM        -0.2729
     19 H1          0.3406   23.2125   -2.4543 H         1 LUM         0.2389
     20 H2         -1.1765   20.4461   -5.0295 H         1 LUM         0.2269
     21 H3          2.0649   17.1134    0.1413 H         1 LUM         0.0573
     22 H4          3.2521   16.3795    1.9351 H         1 LUM         0.0387
     23 H5          3.1232   17.4066    3.4032 H         1 LUM         0.0387
     24 H6          4.6261   17.4303    2.4195 H         1 LUM         0.0387
     25 H7          4.0231   21.2145    3.2649 H         1 LUM         0.0400
     26 H8          4.9709   19.7024    3.0602 H         1 LUM         0.0400
     27 H9          3.4522   19.6877    4.0194 H         1 LUM         0.0400
     28 H10         2.7784   21.8701    1.3913 H         1 LUM         0.0529
@<TRIPOS>BOND
     1    1    2 am 
     2    1    3 1  
     3    2    4 2  
     4    2    5 am 
     5    3    8 ar 
     6    3   18 ar 
     7    5    6 am 
     8    6    7 2  
     9    6    8 1  
    10    8    9 ar 
    11    9   10 ar 
    12   10   11 ar 
    13   10   12 ar 
    14   11   13 ar 
    15   12   17 ar 
    16   12   18 ar 
    17   13   14 1  
    18   13   15 ar 
    19   15   16 1  
    20   15   17 ar 
    21    1   19 1  
    22    5   20 1  
    23   11   21 1  
    24   14   22 1  
    25   14   23 1  
    26   14   24 1  
    27   16   25 1  
    28   16   26 1  
    29   16   27 1  
    30   17   28 1  
@<TRIPOS>SUBSTRUCTURE
     1 LUM         1

