### 
### Created by X-TOOL on Mon Sep 10 21:12:54 2018
### 

@<TRIPOS>MOLECULE
2ccb_ligand
   47    49     1     0     0
SMALL
GAST_HUCK


@<TRIPOS>ATOM
      1 N1          0.2290   22.7140   -2.8930 N.2       1 RBF        -0.2549
      2 C2         -0.4650   22.3310   -3.9920 C.2       1 RBF         0.2439
      3 O2         -0.9230   23.2470   -4.7080 O.2       1 RBF        -0.3902
      4 N3         -0.6390   21.0430   -4.3260 N.am      1 RBF        -0.1938
      5 C4         -0.1950   20.0310   -3.5950 C.2       1 RBF         0.2704
      6 O4         -0.3580   18.8400   -3.9200 O.2       1 RBF        -0.3655
      7 C4A         0.5670   20.3570   -2.3690 C.2       1 RBF         0.2076
      8 N5          1.0610   19.3890   -1.5810 N.2       1 RBF        -0.2387
      9 C5A         1.7560   19.7200   -0.4530 C.ar      1 RBF         0.0856
     10 C6          2.2520   18.7100    0.3550 C.ar      1 RBF        -0.0403
     11 C7          2.9770   19.0210    1.5140 C.ar      1 RBF        -0.0428
     12 C7M         3.5330   17.8890    2.3720 C.3       1 RBF        -0.0352
     13 C8          3.1920   20.4430    1.8740 C.ar      1 RBF        -0.0416
     14 C8M         3.9660   20.7820    3.1350 C.3       1 RBF        -0.0312
     15 C9          2.6870   21.4750    1.0810 C.ar      1 RBF        -0.0258
     16 C9A         1.9690   21.1450   -0.0880 C.ar      1 RBF         0.1048
     17 N10         1.4570   22.1720   -0.9220 N.pl3     1 RBF        -0.2138
     18 C10         0.7390   21.7850   -2.0650 C.2       1 RBF         0.1894
     19 C1          1.5960   23.6000   -0.5930 C.3       1 RBF         0.0886
     20 C2          2.5700   24.3800   -1.4470 C.3       1 RBF         0.1101
     21 O2          3.8580   24.1470   -0.8860 O.3       1 RBF        -0.3865
     22 C3          2.1770   25.8630   -1.5060 C.3       1 RBF         0.1114
     23 O3          2.0800   26.3820   -0.1790 O.3       1 RBF        -0.3865
     24 C4          0.8510   25.9910   -2.3170 C.3       1 RBF         0.1065
     25 O4          1.1430   25.7710   -3.6980 O.3       1 RBF        -0.3869
     26 C5          0.0800   27.3010   -2.1830 C.3       1 RBF         0.0727
     27 O5         -1.0660   27.3250   -3.0630 O.3       1 RBF        -0.3924
     28 H1         -1.1302   20.8358   -5.1721 H         1 RBF         0.2248
     29 H2          2.0786   17.6734    0.0897 H         1 RBF         0.0564
     30 H3          3.2587   16.9218    1.9255 H         1 RBF         0.0366
     31 H4          3.1125   17.9571    3.3862 H         1 RBF         0.0366
     32 H5          4.6287   17.9717    2.4230 H         1 RBF         0.0366
     33 H6          4.0283   21.8748    3.2443 H         1 RBF         0.0395
     34 H7          4.9803   20.3619    3.0667 H         1 RBF         0.0395
     35 H8          3.4503   20.3551    4.0078 H         1 RBF         0.0395
     36 H9          2.8436   22.5112    1.3583 H         1 RBF         0.0493
     37 H10         1.9291   23.6746    0.4527 H         1 RBF         0.0631
     38 H11         0.6061   24.0682   -0.6968 H         1 RBF         0.0631
     39 H12         2.5539   23.9855   -2.4737 H         1 RBF         0.0647
     40 H13         3.8699   24.4511    0.0139 H         1 RBF         0.2100
     41 H14         2.9618   26.4226   -2.0360 H         1 RBF         0.0647
     42 H15         2.9196   26.2931    0.2568 H         1 RBF         0.2100
     43 H16         0.1830   25.1900   -1.9674 H         1 RBF         0.0643
     44 H17         1.7699   26.4199   -3.9952 H         1 RBF         0.2100
     45 H18         0.7467   28.1376   -2.4392 H         1 RBF         0.0584
     46 H19        -0.2633   27.4107   -1.1437 H         1 RBF         0.0584
     47 H20        -1.5263   28.1495   -2.9592 H         1 RBF         0.2095
@<TRIPOS>BOND
     1    1    2 1  
     2    1   18 2  
     3    2    3 2  
     4    2    4 am 
     5    4    5 am 
     6    5    6 2  
     7    5    7 1  
     8    7    8 2  
     9    7   18 1  
    10    8    9 1  
    11    9   10 ar 
    12    9   16 ar 
    13   10   11 ar 
    14   11   12 1  
    15   11   13 ar 
    16   13   14 1  
    17   13   15 ar 
    18   15   16 ar 
    19   16   17 1  
    20   17   18 1  
    21   17   19 1  
    22   19   20 1  
    23   20   21 1  
    24   20   22 1  
    25   22   23 1  
    26   22   24 1  
    27   24   25 1  
    28   24   26 1  
    29   26   27 1  
    30    4   28 1  
    31   10   29 1  
    32   12   30 1  
    33   12   31 1  
    34   12   32 1  
    35   14   33 1  
    36   14   34 1  
    37   14   35 1  
    38   15   36 1  
    39   19   37 1  
    40   19   38 1  
    41   20   39 1  
    42   21   40 1  
    43   22   41 1  
    44   23   42 1  
    45   24   43 1  
    46   25   44 1  
    47   26   45 1  
    48   26   46 1  
    49   27   47 1  
@<TRIPOS>SUBSTRUCTURE
     1 RBF         1

