### 
### Created by X-TOOL on Mon Sep 10 21:12:54 2018
### 

@<TRIPOS>MOLECULE
2ccc_ligand
   32    34     1     0     0
SMALL
GAST_HUCK


@<TRIPOS>ATOM
      1 N1          0.2490   22.4040   -2.6790 N.am      1 LFN        -0.1380
      2 C2         -0.4620   22.0870   -3.7800 C.2       1 LFN         0.3774
      3 C10         0.7630   21.3990   -1.8810 C.ar      1 LFN         0.2622
      4 O2         -0.9270   23.0190   -4.4840 O.2       1 LFN        -0.3507
      5 N3         -0.6750   20.7960   -4.1560 N.am      1 LFN        -0.1640
      6 C4         -0.2500   19.7400   -3.4680 C.2       1 LFN         0.2673
      7 O4         -0.4810   18.5650   -3.8510 O.2       1 LFN        -0.3695
      8 C4A         0.5460   19.9810   -2.2490 C.ar      1 LFN         0.2249
      9 N5          1.0340   18.9650   -1.4800 N.ar      1 LFN        -0.2266
     10 C5A         1.7610   19.2720   -0.3810 C.ar      1 LFN         0.1139
     11 C6          2.2940   18.2810    0.4310 C.ar      1 LFN         0.0178
     12 C9A         1.9830   20.7080   -0.0290 C.ar      1 LFN         0.1016
     13 C7          3.0320   18.6200    1.5660 C.ar      1 LFN         0.0225
     14 C7M         3.6180   17.5160    2.4430 C.3       1 LFN        -0.0058
     15 C8          3.2650   20.0340    1.9100 C.ar      1 LFN         0.0141
     16 C8M         4.0580   20.3880    3.1600 C.3       1 LFN        -0.0187
     17 C9          2.7230   21.0530    1.1250 C.ar      1 LFN         0.0082
     18 N10         1.4730   21.6750   -0.8040 N.ar      1 LFN        -0.2790
     19 C1          1.6990   23.0980   -0.4510 C.3       1 LFN         0.0205
     20 H1          0.4039   23.3627   -2.4406 H         1 LFN         0.3006
     21 H2         -1.1824   20.6315   -5.0018 H         1 LFN         0.2282
     22 H3          2.1363   17.2377    0.1824 H         1 LFN         0.0940
     23 H4          3.3403   16.5345    2.0313 H         1 LFN         0.0505
     24 H5          3.2219   17.6103    3.4648 H         1 LFN         0.0505
     25 H6          4.7139   17.6078    2.4647 H         1 LFN         0.0505
     26 H7          4.1283   21.4819    3.2520 H         1 LFN         0.0409
     27 H8          5.0688   19.9605    3.0863 H         1 LFN         0.0409
     28 H9          3.5499   19.9776    4.0451 H         1 LFN         0.0409
     29 H10         2.8673   22.0926    1.3960 H         1 LFN         0.0899
     30 H11         1.2097   23.7427   -1.1960 H         1 LFN         0.0450
     31 H12         2.7791   23.3058   -0.4392 H         1 LFN         0.0450
     32 H13         1.2757   23.3007    0.5438 H         1 LFN         0.0450
@<TRIPOS>BOND
     1    1    2 am 
     2    1    3 1  
     3    2    4 2  
     4    2    5 am 
     5    3    8 ar 
     6    3   18 ar 
     7    5    6 am 
     8    6    7 2  
     9    6    8 1  
    10    8    9 ar 
    11    9   10 ar 
    12   10   11 ar 
    13   10   12 ar 
    14   11   13 ar 
    15   12   17 ar 
    16   12   18 ar 
    17   13   14 1  
    18   13   15 ar 
    19   15   16 1  
    20   15   17 ar 
    21   18   19 1  
    22    1   20 1  
    23    5   21 1  
    24   11   22 1  
    25   14   23 1  
    26   14   24 1  
    27   14   25 1  
    28   16   26 1  
    29   16   27 1  
    30   16   28 1  
    31   17   29 1  
    32   19   30 1  
    33   19   31 1  
    34   19   32 1  
@<TRIPOS>SUBSTRUCTURE
     1 LFN         1

