### 
### Created by X-TOOL on Mon Sep 10 21:12:54 2018
### 

@<TRIPOS>MOLECULE
2ccs_ligand
   36    38     1     0     0
SMALL
GAST_HUCK


@<TRIPOS>ATOM
      1 CL         33.4180   12.4120   23.0680 Cl        1 4BH        -0.0887
      2 C1         31.8580   11.7320   23.5930 C.ar      1 4BH         0.0542
      3 C2         30.7280   11.9710   22.8700 C.ar      1 4BH         0.0917
      4 O2         30.8540   12.7170   21.6860 O.3       1 4BH        -0.3360
      5 C3         29.4780   11.4760   23.2290 C.ar      1 4BH        -0.0057
      6 C4         29.4140   10.7440   24.4030 C.ar      1 4BH         0.0886
      7 O4         28.1680   10.2570   24.8080 O.3       1 4BH        -0.3345
      8 C5         31.8220   10.9560   24.7300 C.ar      1 4BH        -0.0580
      9 C6         30.5660   10.4780   25.1420 C.ar      1 4BH         0.0196
     10 C7         30.4910    9.6030   26.3430 C.2       1 4BH         0.0909
     11 N1         29.6900    9.6490   27.3800 N.pl3     1 4BH        -0.2311
     12 N2         29.9620    8.6100   28.1630 N.2       1 4BH        -0.2302
     13 C8         30.9230    7.8140   27.6910 C.2       1 4BH         0.0156
     14 C9         31.2860    8.4410   26.4960 C.2       1 4BH         0.0567
     15 N3         32.1990    7.8090   25.6810 N.pl3     1 4BH        -0.3156
     16 C11        31.8170    7.3560   24.3430 C.3       1 4BH         0.0604
     17 C12        32.9930    7.1640   23.3710 C.3       1 4BH        -0.0146
     18 C15        33.4830    7.3880   26.2540 C.3       1 4BH         0.0604
     19 C14        34.6030    7.1890   25.2260 C.3       1 4BH        -0.0146
     20 N4         34.1340    6.4390   24.0180 N.4       1 4BH         0.2296
     21 H1         30.0002   12.8117   21.2803 H         1 4BH         0.2481
     22 H2         28.5988   11.6543   22.6205 H         1 4BH         0.0457
     23 H3         27.5719   10.9850   24.9385 H         1 4BH         0.2489
     24 H4         32.7243   10.7236   25.2840 H         1 4BH         0.0541
     25 H5         28.9731   10.3670   27.5574 H         1 4BH         0.2450
     26 H6         31.3251    6.9015   28.1287 H         1 4BH         0.0619
     27 H7         31.1332    8.1014   23.9108 H         1 4BH         0.0554
     28 H8         31.2943    6.3933   24.4431 H         1 4BH         0.0554
     29 H9         33.3427    8.1513   23.0350 H         1 4BH         0.0832
     30 H10        32.6473    6.5827   22.5035 H         1 4BH         0.0832
     31 H11        33.3279    6.4355   26.7819 H         1 4BH         0.0554
     32 H12        33.8076    8.1562   26.9713 H         1 4BH         0.0554
     33 H13        35.4210    6.6249   25.6978 H         1 4BH         0.0832
     34 H14        34.9727    8.1754   24.9093 H         1 4BH         0.0832
     35 H15        34.8935    6.3585   23.3602 H         1 4BH         0.2015
     36 H16        33.8300    5.5186   24.2946 H         1 4BH         0.2015
@<TRIPOS>BOND
     1    1    2 1  
     2    2    3 ar 
     3    2    8 ar 
     4    3    4 1  
     5    3    5 ar 
     6    5    6 ar 
     7    6    7 1  
     8    6    9 ar 
     9    8    9 ar 
    10    9   10 1  
    11   10   11 1  
    12   10   14 2  
    13   11   12 1  
    14   12   13 2  
    15   13   14 1  
    16   14   15 1  
    17   15   16 1  
    18   15   18 1  
    19   16   17 1  
    20   17   20 1  
    21   18   19 1  
    22   19   20 1  
    23    4   21 1  
    24    5   22 1  
    25    7   23 1  
    26    8   24 1  
    27   11   25 1  
    28   13   26 1  
    29   16   27 1  
    30   16   28 1  
    31   17   29 1  
    32   17   30 1  
    33   18   31 1  
    34   18   32 1  
    35   19   33 1  
    36   19   34 1  
    37   20   35 1  
    38   20   36 1  
@<TRIPOS>SUBSTRUCTURE
     1 4BH         1

