### 
### Created by X-TOOL on Mon Sep 10 21:12:54 2018
### 

@<TRIPOS>MOLECULE
2cct_ligand
   46    48     1     0     0
SMALL
GAST_HUCK


@<TRIPOS>ATOM
      1 C19        35.0300    7.1580   25.3610 C.3       1 2E1        -0.0141
      2 C20        34.0940    8.2190   25.9230 C.3       1 2E1         0.0628
      3 C17        32.3020    7.4210   24.3390 C.3       1 2E1         0.0628
      4 C16        33.2950    6.3580   23.8720 C.3       1 2E1        -0.0141
      5 N21        32.6980    8.0350   25.5880 N.pl3     1 2E1        -0.3083
      6 C3         31.7870    8.6090   26.3990 C.2       1 2E1         0.0793
      7 C2         31.3770    8.3360   27.6760 C.2       1 2E1         0.1620
      8 C8         31.8480    7.2240   28.4370 C.2       1 2E1         0.2144
      9 N24        34.6920    6.9190   23.9210 N.4       1 2E1         0.2297
     10 O9         32.3810    6.2910   27.8430 O.2       1 2E1        -0.3960
     11 N10        31.7170    7.2950   29.7650 N.am      1 2E1        -0.2888
     12 C26        31.9740    6.1740   30.5170 C.3       1 2E1         0.0269
     13 C27        33.4540    5.8480   30.7900 C.3       1 2E1        -0.0450
     14 N1         30.5410    9.2700   28.1140 N.pl3     1 2E1        -0.2264
     15 N5         30.3490   10.1640   27.1350 N.2       1 2E1        -0.2279
     16 C4         31.0920    9.8120   26.0680 C.2       1 2E1         0.0541
     17 C6         31.1260   10.6170   24.8360 C.2       1 2E1         0.0147
     18 C11        32.3410   11.1030   24.3700 C.2       1 2E1        -0.0572
     19 C12        32.3740   11.8650   23.2070 C.2       1 2E1         0.0698
     20 CL25       33.8730   12.5000   22.6400 Cl        1 2E1        -0.1020
     21 C13        31.2390   12.1950   22.4900 C.2       1 2E1         0.1363
     22 O24        31.3410   12.9440   21.3480 O.3       1 2E1        -0.2997
     23 C14        30.0080   11.7000   22.9670 C.3       1 2E1         0.0963
     24 C15        29.9780   10.9260   24.1380 C.2       1 2E1         0.1195
     25 O23        28.8370   10.5160   24.5970 O.2       1 2E1        -0.4094
     26 H1         34.9095    6.2230   25.9277 H         1 2E1         0.0833
     27 H2         36.0708    7.5045   25.4424 H         1 2E1         0.0833
     28 H3         34.4131    9.1974   25.5346 H         1 2E1         0.0559
     29 H4         34.1868    8.2115   27.0190 H         1 2E1         0.0559
     30 H5         31.3173    6.9497   24.4737 H         1 2E1         0.0559
     31 H6         32.2322    8.2023   23.5679 H         1 2E1         0.0559
     32 H7         33.0555    6.0606   22.8404 H         1 2E1         0.0833
     33 H8         33.2293    5.4800   24.5314 H         1 2E1         0.0833
     34 H9         35.3415    6.2610   23.5195 H         1 2E1         0.2015
     35 H10        34.7328    7.7864   23.4092 H         1 2E1         0.2015
     36 H11        31.4369    8.1488   30.2038 H         1 2E1         0.1833
     37 H12        31.5345    5.3129   29.9924 H         1 2E1         0.0515
     38 H13        31.4766    6.3039   31.4895 H         1 2E1         0.0515
     39 H14        33.5220    4.9337   31.3978 H         1 2E1         0.0249
     40 H15        33.9197    6.6842   31.3322 H         1 2E1         0.0249
     41 H16        33.9776    5.6931   29.8351 H         1 2E1         0.0249
     42 H17        30.1119    9.3018   29.0498 H         1 2E1         0.2461
     43 H18        33.2612   10.8889   24.9115 H         1 2E1         0.0652
     44 H19        30.4753   13.0795   20.9811 H         1 2E1         0.2695
     45 H20        29.5799   11.0815   22.1644 H         1 2E1         0.0794
     46 H21        29.3603   12.5713   23.1435 H         1 2E1         0.0794
@<TRIPOS>BOND
     1    2    1 1  
     2    1    9 1  
     3    5    2 1  
     4    3    4 1  
     5    3    5 1  
     6    4    9 1  
     7    5    6 1  
     8    6    7 2  
     9    6   16 1  
    10    7    8 1  
    11    7   14 1  
    12    8   10 2  
    13    8   11 am 
    14   11   12 1  
    15   12   13 1  
    16   14   15 1  
    17   15   16 2  
    18   16   17 1  
    19   17   18 2  
    20   17   24 1  
    21   18   19 1  
    22   19   20 1  
    23   19   21 2  
    24   21   22 1  
    25   21   23 1  
    26   23   24 1  
    27   24   25 2  
    28    1   26 1  
    29    1   27 1  
    30    2   28 1  
    31    2   29 1  
    32    3   30 1  
    33    3   31 1  
    34    4   32 1  
    35    4   33 1  
    36    9   34 1  
    37    9   35 1  
    38   11   36 1  
    39   12   37 1  
    40   12   38 1  
    41   13   39 1  
    42   13   40 1  
    43   13   41 1  
    44   14   42 1  
    45   18   43 1  
    46   22   44 1  
    47   23   45 1  
    48   23   46 1  
@<TRIPOS>SUBSTRUCTURE
     1 2E1         1

