### 
### Created by X-TOOL on Mon Sep 10 21:12:55 2018
### 

@<TRIPOS>MOLECULE
2ccu_ligand
   55    58     1     0     0
SMALL
GAST_HUCK


@<TRIPOS>ATOM
      1 C31        30.3250    3.0800   18.5890 C.3       1 2D9         0.0587
      2 S28        32.1020    2.8400   18.4830 S.o2      1 2D9        -0.0088
      3 O29        32.1810    1.3580   18.7050 O.2       1 2D9        -0.1705
      4 O30        32.4150    3.2230   17.0480 O.2       1 2D9        -0.1705
      5 C25        33.0550    3.7530   19.7760 C.ar      1 2D9         0.0809
      6 C26        33.7420    4.9720   19.5820 C.ar      1 2D9        -0.0436
      7 C27        34.4350    5.6070   20.6510 C.ar      1 2D9        -0.0535
      8 C24        33.1200    3.2080   21.0650 C.ar      1 2D9        -0.0436
      9 C23        33.8070    3.8360   22.1240 C.ar      1 2D9        -0.0535
     10 C19        34.4630    5.0560   21.9510 C.ar      1 2D9         0.0015
     11 C18        35.2220    5.6900   23.1690 C.3       1 2D9         0.0021
     12 N15        34.4470    6.6080   24.0870 N.4       1 2D9         0.2498
     13 C16        33.1080    7.0140   23.5630 C.3       1 2D9        -0.0114
     14 C17        31.9840    6.9510   24.6110 C.3       1 2D9         0.0605
     15 C14        34.4600    6.0970   25.4990 C.3       1 2D9        -0.0114
     16 C13        33.6370    6.9400   26.5240 C.3       1 2D9         0.0605
     17 N12        32.3580    7.4140   25.9510 N.pl3     1 2D9        -0.3156
     18 C3         31.5040    8.2570   26.7030 C.2       1 2D9         0.0567
     19 C2         31.1690    7.9020   27.9240 C.2       1 2D9         0.0156
     20 N1         30.3760    8.8750   28.3980 N.2       1 2D9        -0.2302
     21 N5         30.1700    9.7950   27.5770 N.pl3     1 2D9        -0.2311
     22 C4         30.8580    9.5430   26.4630 C.2       1 2D9         0.0909
     23 C6         30.8970   10.3700   25.3020 C.ar      1 2D9         0.0196
     24 C7         32.1040   10.8160   24.8050 C.ar      1 2D9        -0.0580
     25 C8         32.1800   11.6200   23.6540 C.ar      1 2D9         0.0542
     26 CL20       33.7640   12.1180   23.1540 Cl        1 2D9        -0.0887
     27 C9         31.0220   12.0100   22.9210 C.ar      1 2D9         0.0917
     28 O21        31.0940   12.7880   21.7370 O.3       1 2D9        -0.3360
     29 C10        29.7810   11.5660   23.4590 C.ar      1 2D9        -0.0057
     30 C11        29.7430   10.7670   24.6180 C.ar      1 2D9         0.0886
     31 O22        28.5440   10.3480   25.0670 O.3       1 2D9        -0.3345
     32 H1         29.9809    2.8282   19.6030 H         1 2D9         0.0467
     33 H2         29.8228    2.4283   17.8590 H         1 2D9         0.0467
     34 H3         30.0831    4.1305   18.3701 H         1 2D9         0.0467
     35 H4         33.7414    5.4325   18.6007 H         1 2D9         0.0618
     36 H5         34.9554    6.5389   20.4621 H         1 2D9         0.0559
     37 H6         32.6215    2.2645   21.2560 H         1 2D9         0.0618
     38 H7         33.8263    3.3593   23.0974 H         1 2D9         0.0559
     39 H8         36.0656    6.2682   22.7640 H         1 2D9         0.0980
     40 H9         35.6060    4.8617   23.7825 H         1 2D9         0.0980
     41 H10        34.9765    7.4653   24.1142 H         1 2D9         0.2049
     42 H11        32.8439    6.3445   22.7311 H         1 2D9         0.0833
     43 H12        33.1794    8.0476   23.1934 H         1 2D9         0.0833
     44 H13        31.6514    5.9056   24.6920 H         1 2D9         0.0554
     45 H14        31.1506    7.5745   24.2551 H         1 2D9         0.0554
     46 H15        35.5050    6.0724   25.8414 H         1 2D9         0.0833
     47 H16        34.0516    5.0757   25.4941 H         1 2D9         0.0833
     48 H17        34.2347    7.8119   26.8280 H         1 2D9         0.0554
     49 H18        33.4224    6.3173   27.4050 H         1 2D9         0.0554
     50 H19        31.4748    6.9971   28.4471 H         1 2D9         0.0619
     51 H20        29.5667   10.6147   27.7354 H         1 2D9         0.2450
     52 H21        33.0191   10.5390   25.3158 H         1 2D9         0.0541
     53 H22        30.2170   12.9382   21.4043 H         1 2D9         0.2481
     54 H23        28.8546   11.8462   22.9709 H         1 2D9         0.0457
     55 H24        28.0028   11.1015   25.2716 H         1 2D9         0.2489
@<TRIPOS>BOND
     1    1    2 1  
     2    2    3 2  
     3    2    4 2  
     4    2    5 1  
     5    5    6 ar 
     6    5    8 ar 
     7    6    7 ar 
     8    7   10 ar 
     9    8    9 ar 
    10    9   10 ar 
    11   10   11 1  
    12   11   12 1  
    13   12   13 1  
    14   12   15 1  
    15   13   14 1  
    16   14   17 1  
    17   15   16 1  
    18   16   17 1  
    19   17   18 1  
    20   18   19 1  
    21   18   22 2  
    22   19   20 2  
    23   20   21 1  
    24   21   22 1  
    25   22   23 1  
    26   23   24 ar 
    27   23   30 ar 
    28   24   25 ar 
    29   25   26 1  
    30   25   27 ar 
    31   27   28 1  
    32   27   29 ar 
    33   29   30 ar 
    34   30   31 1  
    35    1   32 1  
    36    1   33 1  
    37    1   34 1  
    38    6   35 1  
    39    7   36 1  
    40    8   37 1  
    41    9   38 1  
    42   11   39 1  
    43   11   40 1  
    44   12   41 1  
    45   13   42 1  
    46   13   43 1  
    47   14   44 1  
    48   14   45 1  
    49   15   46 1  
    50   15   47 1  
    51   16   48 1  
    52   16   49 1  
    53   19   50 1  
    54   21   51 1  
    55   24   52 1  
    56   28   53 1  
    57   29   54 1  
    58   31   55 1  
@<TRIPOS>SUBSTRUCTURE
     1 2D9         1

