### 
### Created by X-TOOL on Mon Sep 10 21:12:54 2018
### 

@<TRIPOS>MOLECULE
2ce9_ligand
  106   110     1     0     0
SMALL
GAST_HUCK


@<TRIPOS>ATOM
      1 N         -25.1260  -15.1240   33.5760 N.4       1 MET         0.2379
      2 CA        -24.9950  -13.7870   34.2780 C.3       1 MET         0.0658
      3 C         -23.5700  -13.5000   34.6620 C.2       1 MET         0.2268
      4 O         -22.9220  -14.3650   35.2200 O.2       1 MET        -0.3907
      5 CB        -25.8510  -13.7690   35.5340 C.3       1 MET         0.0168
      6 CG        -26.4150  -12.4200   35.8900 C.3       1 MET         0.0007
      7 SD        -27.8420  -11.8290   34.9400 S.3       1 MET        -0.1638
      8 CE        -27.0710  -11.4820   33.3280 C.3       1 MET        -0.0181
      9 N         -23.0520  -12.3150   34.3430 N.am      1 TRP        -0.2599
     10 CA        -21.6780  -12.0000   34.7700 C.3       1 TRP         0.1353
     11 C         -21.5630  -11.8100   36.2970 C.2       1 TRP         0.2052
     12 O         -22.2740  -10.9640   36.8800 O.2       1 TRP        -0.3942
     13 CB        -21.0970  -10.7990   34.0210 C.3       1 TRP         0.0042
     14 CG        -19.8060  -10.3160   34.6250 C.2       1 TRP        -0.0418
     15 CD1       -18.5760  -10.9010   34.4910 C.2       1 TRP         0.0167
     16 CD2       -19.6180   -9.1510   35.4560 C.ar      1 TRP        -0.0214
     17 NE1       -17.6430  -10.1810   35.1900 N.pl3     1 TRP        -0.2890
     18 CE2       -18.2480   -9.0990   35.7890 C.ar      1 TRP         0.0603
     19 CE3       -20.4800   -8.1700   35.9730 C.ar      1 TRP        -0.0747
     20 CZ2       -17.7010   -8.0700   36.6140 C.ar      1 TRP        -0.0443
     21 CZ3       -19.9470   -7.1300   36.7780 C.ar      1 TRP        -0.0792
     22 CH2       -18.5760   -7.0850   37.0900 C.ar      1 TRP        -0.0768
     23 N         -20.6600  -12.5840   36.9270 N.am      1 ARG        -0.2636
     24 CA        -20.4460  -12.5420   38.3710 C.3       1 ARG         0.1313
     25 C         -18.9620  -12.6320   38.6170 C.2       1 ARG         0.2064
     26 O         -18.3990  -13.7030   38.4580 O.2       1 ARG        -0.3942
     27 CB        -21.1440  -13.7190   39.0840 C.3       1 ARG        -0.0092
     28 CG        -22.6290  -13.8620   38.7610 C.3       1 ARG        -0.0156
     29 CD        -23.2410  -15.0170   39.5680 C.3       1 ARG         0.0627
     30 NE        -24.6980  -14.9420   39.5090 N.pl3     1 ARG        -0.2723
     31 CZ        -25.4950  -15.9970   39.6890 C.cat     1 ARG         0.2882
     32 NH1       -24.9560  -17.1830   39.9610 N.pl3     1 ARG        -0.2849
     33 NH2       -26.8170  -15.8690   39.6150 N.pl3     1 ARG        -0.2849
     34 N         -18.3240  -11.5230   39.0230 N.am      1 PRO        -0.2498
     35 CA        -16.8460  -11.4830   39.0990 C.3       1 PRO         0.1337
     36 C         -16.1500  -12.2260   40.2730 C.2       1 PRO         0.2036
     37 O         -14.8890  -12.3590   40.2850 O.2       1 PRO        -0.3944
     38 CB        -16.5470   -9.9840   39.1980 C.3       1 PRO        -0.0104
     39 CG        -17.8170   -9.3600   39.8490 C.3       1 PRO        -0.0281
     40 CD        -18.9570  -10.2210   39.3690 C.3       1 PRO         0.0369
     41 N         -16.9330  -12.6810   41.2470 N.am      1 TRP        -0.2684
     42 CA        -16.3610  -13.2480   42.4760 C.3       1 TRP         0.0986
     43 C         -16.1200  -14.7680   42.3840 C.2       1 TRP         0.0613
     44 O         -16.4110  -15.4700   41.3990 O.co2     1 TRP        -0.5665
     45 CB        -17.2610  -12.9020   43.6800 C.3       1 TRP        -0.0013
     46 CG        -18.6540  -13.5000   43.6120 C.2       1 TRP        -0.0424
     47 CD1       -19.0330  -14.7290   44.0600 C.2       1 TRP         0.0166
     48 CD2       -19.8480  -12.8810   43.0840 C.ar      1 TRP        -0.0214
     49 NE1       -20.3690  -14.9290   43.8360 N.pl3     1 TRP        -0.2891
     50 CE2       -20.8990  -13.8050   43.2500 C.ar      1 TRP         0.0603
     51 CE3       -20.1220  -11.6470   42.4800 C.ar      1 TRP        -0.0747
     52 CZ2       -22.2040  -13.5440   42.8090 C.ar      1 TRP        -0.0443
     53 CZ3       -21.4250  -11.3800   42.0680 C.ar      1 TRP        -0.0792
     54 CH2       -22.4470  -12.3420   42.2250 C.ar      1 TRP        -0.0768
     55 OXT       -15.6230  -15.3830   43.3350 O.co2     1 TRP        -0.5665
     56 H1        -26.0914  -15.2831   33.3338 H         1 MET         0.2015
     57 H2        -24.8081  -15.8581   34.1892 H         1 MET         0.2015
     58 H3        -24.5657  -15.1199   32.7381 H         1 MET         0.2015
     59 H4        -25.3431  -12.9986   33.5945 H         1 MET         0.1098
     60 H5        -25.2326  -14.1149   36.3754 H         1 MET         0.0354
     61 H6        -26.6910  -14.4637   35.3864 H         1 MET         0.0354
     62 H7        -25.6083  -11.6827   35.7650 H         1 MET         0.0380
     63 H8        -26.7165  -12.4580   36.9472 H         1 MET         0.0380
     64 H9        -27.8338  -11.1065   32.6300 H         1 MET         0.0340
     65 H10       -26.6295  -12.4059   32.9262 H         1 MET         0.0340
     66 H11       -26.2839  -10.7239   33.4536 H         1 MET         0.0340
     67 H12       -23.5873  -11.6501   33.8221 H         1 TRP         0.1886
     68 H13       -21.0590  -12.8708   34.5084 H         1 TRP         0.0815
     69 H14       -21.8286   -9.9780   34.0482 H         1 TRP         0.0397
     70 H15       -20.9112  -11.0901   32.9766 H         1 TRP         0.0397
     71 H16       -18.3700  -11.8024   33.9158 H         1 TRP         0.0795
     72 H17       -16.6419  -10.4137   35.2571 H         1 TRP         0.2216
     73 H18       -21.5421   -8.2070   35.7592 H         1 TRP         0.0540
     74 H19       -16.6462   -8.0516   36.8631 H         1 TRP         0.0541
     75 H20       -20.6065   -6.3583   37.1584 H         1 TRP         0.0510
     76 H21       -18.1924   -6.2793   37.7055 H         1 TRP         0.0530
     77 H22       -20.1105  -13.2167   36.3814 H         1 ARG         0.1883
     78 H23       -20.8363  -11.5946   38.7711 H         1 ARG         0.0800
     79 H24       -21.0407  -13.5735   40.1694 H         1 ARG         0.0313
     80 H25       -20.6368  -14.6494   38.7888 H         1 ARG         0.0313
     81 H26       -22.7488  -14.0664   37.6868 H         1 ARG         0.0301
     82 H27       -23.1477  -12.9262   39.0162 H         1 ARG         0.0301
     83 H28       -22.9135  -14.9447   40.6156 H         1 ARG         0.0689
     84 H29       -22.9070  -15.9758   39.1448 H         1 ARG         0.0689
     85 H30       -25.1329  -14.0279   39.3187 H         1 ARG         0.2642
     86 H31       -25.5619  -18.0040   40.1018 H         1 ARG         0.2615
     87 H32       -23.9329  -17.2799   40.0308 H         1 ARG         0.2615
     88 H33       -27.2346  -14.9513   39.4045 H         1 ARG         0.2615
     89 H34       -27.4231  -16.6876   39.7682 H         1 ARG         0.2615
     90 H35       -16.4373  -11.8936   38.1639 H         1 PRO         0.0802
     91 H36       -16.3759   -9.5573   38.1987 H         1 PRO         0.0313
     92 H37       -15.6632   -9.8071   39.8285 H         1 PRO         0.0313
     93 H38       -17.9510   -8.3196   39.5180 H         1 PRO         0.0287
     94 H39       -17.7444   -9.3893   40.9462 H         1 PRO         0.0287
     95 H40       -19.7059  -10.3523   40.1639 H         1 PRO         0.0524
     96 H41       -19.4353   -9.7745   38.4848 H         1 PRO         0.0524
     97 H42       -17.9264  -12.6366   41.1413 H         1 TRP         0.1876
     98 H43       -15.3828  -12.7712   42.6366 H         1 TRP         0.0741
     99 H44       -17.3584  -11.8077   43.7338 H         1 TRP         0.0390
    100 H45       -16.7718  -13.2719   44.5931 H         1 TRP         0.0390
    101 H46       -18.3672  -15.4511   44.5303 H         1 TRP         0.0795
    102 H47       -20.8926  -15.7848   44.0694 H         1 TRP         0.2216
    103 H48       -19.3356  -10.9149   42.3363 H         1 TRP         0.0540
    104 H49       -22.9931  -14.2773   42.9301 H         1 TRP         0.0541
    105 H50       -21.6582  -10.4206   41.6206 H         1 TRP         0.0510
    106 H51       -23.4467  -12.1163   41.8719 H         1 TRP         0.0530
@<TRIPOS>BOND
     1    1    2 1  
     2    2    3 1  
     3    2    5 1  
     4    3    4 2  
     5    3    9 am 
     6    5    6 1  
     7    6    7 1  
     8    7    8 1  
     9    9   10 1  
    10   10   11 1  
    11   10   13 1  
    12   11   12 2  
    13   11   23 am 
    14   13   14 1  
    15   14   15 2  
    16   14   16 1  
    17   15   17 1  
    18   16   18 ar 
    19   16   19 ar 
    20   17   18 1  
    21   18   20 ar 
    22   19   21 ar 
    23   20   22 ar 
    24   21   22 ar 
    25   23   24 1  
    26   24   25 1  
    27   24   27 1  
    28   25   26 2  
    29   25   34 am 
    30   27   28 1  
    31   28   29 1  
    32   29   30 1  
    33   30   31 ar 
    34   31   32 ar 
    35   31   33 ar 
    36   34   35 1  
    37   34   40 1  
    38   35   36 1  
    39   35   38 1  
    40   36   37 2  
    41   36   41 am 
    42   38   39 1  
    43   39   40 1  
    44   41   42 1  
    45   42   43 1  
    46   42   45 1  
    47   43   44 ar 
    48   43   55 ar 
    49   45   46 1  
    50   46   47 2  
    51   46   48 1  
    52   47   49 1  
    53   48   50 ar 
    54   48   51 ar 
    55   49   50 1  
    56   50   52 ar 
    57   51   53 ar 
    58   52   54 ar 
    59   53   54 ar 
    60    1   56 1  
    61    1   57 1  
    62    1   58 1  
    63    2   59 1  
    64    5   60 1  
    65    5   61 1  
    66    6   62 1  
    67    6   63 1  
    68    8   64 1  
    69    8   65 1  
    70    8   66 1  
    71    9   67 1  
    72   10   68 1  
    73   13   69 1  
    74   13   70 1  
    75   15   71 1  
    76   17   72 1  
    77   19   73 1  
    78   20   74 1  
    79   21   75 1  
    80   22   76 1  
    81   23   77 1  
    82   24   78 1  
    83   27   79 1  
    84   27   80 1  
    85   28   81 1  
    86   28   82 1  
    87   29   83 1  
    88   29   84 1  
    89   30   85 1  
    90   32   86 1  
    91   32   87 1  
    92   33   88 1  
    93   33   89 1  
    94   35   90 1  
    95   38   91 1  
    96   38   92 1  
    97   39   93 1  
    98   39   94 1  
    99   40   95 1  
   100   40   96 1  
   101   41   97 1  
   102   42   98 1  
   103   45   99 1  
   104   45  100 1  
   105   47  101 1  
   106   49  102 1  
   107   51  103 1  
   108   52  104 1  
   109   53  105 1  
   110   54  106 1  
@<TRIPOS>SUBSTRUCTURE
     1 MET         1

