### 
### Created by X-TOOL on Mon Sep 10 21:12:56 2018
### 

@<TRIPOS>MOLECULE
2cej_ligand
   87    90     1     0     0
SMALL
GAST_HUCK


@<TRIPOS>ATOM
      1 C23        14.7990   22.1140    7.9090 C.ar      1 1AH        -0.0411
      2 C24        14.2840   20.9720    8.6230 C.ar      1 1AH        -0.0604
      3 C25        15.1580   20.1610    9.4240 C.ar      1 1AH        -0.0686
      4 C26        16.5570   20.4900    9.5160 C.ar      1 1AH        -0.0687
      5 C27        17.0770   21.6270    8.8100 C.ar      1 1AH        -0.0686
      6 C28        16.2080   22.4410    8.0080 C.ar      1 1AH        -0.0604
      7 C33         9.8270   23.7910    2.8810 C.ar      1 1AH         0.0051
      8 C34        10.3450   24.5120    1.7690 C.ar      1 1AH        -0.0524
      9 C35         9.4820   25.3570    1.0200 C.ar      1 1AH        -0.0588
     10 C36         8.1050   25.4730    1.3930 C.ar      1 1AH         0.0056
     11 C37         7.5870   24.7400    2.5030 C.ar      1 1AH        -0.0588
     12 C38         8.4480   23.8980    3.2480 C.ar      1 1AH        -0.0524
     13 C32        10.7490   22.9350    3.6710 C.3       1 1AH         0.0279
     14 C7          5.5460   27.2890    4.6170 C.3       1 1AH         0.0663
     15 C4         12.6900   22.6490    4.6390 C.3       1 1AH         0.0335
     16 O3          8.2660   27.6630    5.1840 O.2       1 1AH        -0.3774
     17 N1          8.2980   25.7790    6.4460 N.am      1 1AH        -0.2405
     18 C22        13.8670   22.9520    7.0240 C.3       1 1AH         0.0222
     19 O6         14.9360   23.5260    4.9140 O.3       1 1AH        -0.3781
     20 O8          6.3440   26.4270    5.4320 O.3       1 1AH        -0.2672
     21 C10        14.4260   21.1560    5.2090 C.2       1 1AH         0.2370
     22 O11        13.5450   20.2820    5.1370 O.2       1 1AH        -0.3412
     23 N12        15.7200   20.8040    5.1140 N.am      1 1AH        -0.2677
     24 C51        16.1280   19.4050    4.9480 C.3       1 1AH         0.1008
     25 C52        16.1050   18.8570    3.5460 C.ar      1 1AH        -0.0131
     26 C57        17.1280   17.9010    3.4230 C.ar      1 1AH        -0.0360
     27 C53        15.2430   19.1780    2.4470 C.ar      1 1AH        -0.0646
     28 C54        15.4520   18.4970    1.2010 C.ar      1 1AH        -0.0754
     29 C55        16.5020   17.5210    1.0810 C.ar      1 1AH        -0.0755
     30 C59        17.5640   19.1040    5.4340 C.3       1 1AH         0.0952
     31 O60        18.4930   20.0600    4.9250 O.3       1 1AH        -0.3856
     32 C30         7.6580   26.6680    5.6650 C.2       1 1AH         0.3216
     33 C56        17.3530   17.2110    2.1980 C.ar      1 1AH        -0.0667
     34 C58        17.8820   17.7640    4.7340 C.3       1 1AH         0.0085
     35 C41         9.7180   25.7970    6.8500 C.3       1 1AH         0.1419
     36 C42         9.8000   26.0620    8.3980 C.3       1 1AH         0.0027
     37 C43         9.1510   27.4140    8.8140 C.3       1 1AH        -0.0558
     38 C1         13.9900   22.6400    5.4810 C.3       1 1AH         0.1955
     39 C44        11.2420   26.0950    8.9250 C.3       1 1AH        -0.0558
     40 C45        10.3790   24.4880    6.3210 C.2       1 1AH         0.2392
     41 N24        11.7750   23.7090    4.4380 N.4       1 1AH         0.3817
     42 O46        10.0150   23.3910    6.7380 O.2       1 1AH        -0.3898
     43 N47        11.3600   24.6310    5.3950 N.am      1 1AH        -0.2495
     44 BR          6.9720   26.6170    0.4190 Br        1 1AH        -0.0561
     45 C86         9.0240   24.9560    9.1370 C.3       1 1AH        -0.0558
     46 H1         13.2309   20.7240    8.5549 H         1 1AH         0.0557
     47 H2         14.7654   19.3032    9.9580 H         1 1AH         0.0599
     48 H3         17.2184   19.8784   10.1191 H         1 1AH         0.0559
     49 H4         18.1305   21.8719    8.8829 H         1 1AH         0.0599
     50 H5         16.6047   23.2989    7.4772 H         1 1AH         0.0557
     51 H6         11.3896   24.4175    1.4953 H         1 1AH         0.0566
     52 H7          9.8647   25.9109    0.1704 H         1 1AH         0.0626
     53 H8          6.5410   24.8274    2.7739 H         1 1AH         0.0626
     54 H9          8.0642   23.3371    4.0925 H         1 1AH         0.0566
     55 H10        11.2703   22.2556    2.9806 H         1 1AH         0.0994
     56 H11        10.1526   22.3467    4.3838 H         1 1AH         0.0994
     57 H12         4.5182   26.9000    4.5687 H         1 1AH         0.0575
     58 H13         5.9701   27.3311    3.6029 H         1 1AH         0.0575
     59 H14         5.5356   28.2991    5.0523 H         1 1AH         0.0575
     60 H15        12.0814   21.8370    5.0636 H         1 1AH         0.0838
     61 H16        13.0163   22.3714    3.6259 H         1 1AH         0.0838
     62 H17         7.7489   25.0186    6.7928 H         1 1AH         0.1899
     63 H18        14.1042   24.0145    7.1815 H         1 1AH         0.0443
     64 H19        12.8296   22.7580    7.3339 H         1 1AH         0.0443
     65 H20        14.6452   24.4215    5.0408 H         1 1AH         0.2083
     66 H21        16.4225   21.5144    5.1576 H         1 1AH         0.1887
     67 H22        15.4257   18.8130    5.5532 H         1 1AH         0.0734
     68 H23        14.4550   19.9147    2.5538 H         1 1AH         0.0538
     69 H24        14.8183   18.7182    0.3498 H         1 1AH         0.0541
     70 H25        16.6538   17.0124    0.1358 H         1 1AH         0.0541
     71 H26        17.6218   19.0390    6.5305 H         1 1AH         0.0659
     72 H27        18.2477   20.9280    5.2230 H         1 1AH         0.2103
     73 H28        18.1427   16.4736    2.1100 H         1 1AH         0.0537
     74 H29        18.9626   17.6500    4.5628 H         1 1AH         0.0439
     75 H30        17.5115   16.9100    5.3200 H         1 1AH         0.0439
     76 H31        10.2195   26.6397    6.3517 H         1 1AH         0.0806
     77 H32         9.2387   27.5431    9.9029 H         1 1AH         0.0237
     78 H33         8.0885   27.4137    8.5292 H         1 1AH         0.0237
     79 H34         9.6671   28.2408    8.3040 H         1 1AH         0.0237
     80 H35        11.7516   25.1575    8.6577 H         1 1AH         0.0237
     81 H36        11.2300   26.2067   10.0192 H         1 1AH         0.0237
     82 H37        11.7773   26.9443    8.4756 H         1 1AH         0.0237
     83 H38        12.2266   24.3165    3.7724 H         1 1AH         0.2321
     84 H39        11.8444   25.5058    5.4005 H         1 1AH         0.2383
     85 H40         7.9888   24.9242    8.7663 H         1 1AH         0.0237
     86 H41         9.0206   25.1689   10.2162 H         1 1AH         0.0237
     87 H42         9.5082   23.9850    8.9563 H         1 1AH         0.0237
@<TRIPOS>BOND
     1    1    2 ar 
     2    1    6 ar 
     3   18    1 1  
     4    2    3 ar 
     5    3    4 ar 
     6    5    4 ar 
     7    6    5 ar 
     8    7    8 ar 
     9    7   12 ar 
    10   13    7 1  
    11    8    9 ar 
    12    9   10 ar 
    13   11   10 ar 
    14   10   44 1  
    15   12   11 ar 
    16   41   13 1  
    17   20   14 1  
    18   15   38 1  
    19   41   15 1  
    20   32   16 2  
    21   17   32 am 
    22   35   17 1  
    23   38   18 1  
    24   38   19 1  
    25   32   20 1  
    26   21   22 2  
    27   21   23 am 
    28   38   21 1  
    29   23   24 1  
    30   24   25 1  
    31   24   30 1  
    32   25   26 ar 
    33   25   27 ar 
    34   26   33 ar 
    35   34   26 1  
    36   27   28 ar 
    37   28   29 ar 
    38   33   29 ar 
    39   30   31 1  
    40   30   34 1  
    41   35   36 1  
    42   40   35 1  
    43   36   37 1  
    44   36   39 1  
    45   36   45 1  
    46   40   42 2  
    47   43   40 am 
    48   41   43 1  
    49    2   46 1  
    50    3   47 1  
    51    4   48 1  
    52    5   49 1  
    53    6   50 1  
    54    8   51 1  
    55    9   52 1  
    56   11   53 1  
    57   12   54 1  
    58   13   55 1  
    59   13   56 1  
    60   14   57 1  
    61   14   58 1  
    62   14   59 1  
    63   15   60 1  
    64   15   61 1  
    65   17   62 1  
    66   18   63 1  
    67   18   64 1  
    68   19   65 1  
    69   23   66 1  
    70   24   67 1  
    71   27   68 1  
    72   28   69 1  
    73   29   70 1  
    74   30   71 1  
    75   31   72 1  
    76   33   73 1  
    77   34   74 1  
    78   34   75 1  
    79   35   76 1  
    80   37   77 1  
    81   37   78 1  
    82   37   79 1  
    83   39   80 1  
    84   39   81 1  
    85   39   82 1  
    86   41   83 1  
    87   43   84 1  
    88   45   85 1  
    89   45   86 1  
    90   45   87 1  
@<TRIPOS>SUBSTRUCTURE
     1 1AH         1

