### 
### Created by X-TOOL on Mon Sep 10 21:12:56 2018
### 

@<TRIPOS>MOLECULE
2cen_ligand
   96   100     1     0     0
SMALL
GAST_HUCK


@<TRIPOS>ATOM
      1 C1         14.3070   22.9110    5.6430 C.3       1 4AH         0.1955
      2 C2         14.5790   21.3770    5.3860 C.2       1 4AH         0.2370
      3 O3         13.6330   20.5620    5.4030 O.2       1 4AH        -0.3412
      4 N4         15.8330   20.9260    5.1890 N.am      1 4AH        -0.2677
      5 C5         16.1290   19.4960    4.9900 C.3       1 4AH         0.1008
      6 C6         16.0890   18.9950    3.5740 C.ar      1 4AH        -0.0131
      7 C7         15.2500   19.4110    2.4890 C.ar      1 4AH        -0.0646
      8 C8         15.4250   18.7590    1.2180 C.ar      1 4AH        -0.0754
      9 C9         16.4120   17.7250    1.0620 C.ar      1 4AH        -0.0755
     10 C10        17.2390   17.3220    2.1630 C.ar      1 4AH        -0.0667
     11 C11        17.0540   17.9780    3.4120 C.ar      1 4AH        -0.0360
     12 C12        17.7990   17.7320    4.7040 C.3       1 4AH         0.0085
     13 C13        17.5230   19.0220    5.5170 C.3       1 4AH         0.0952
     14 O14        18.5730   19.9140    5.1680 O.3       1 4AH        -0.3856
     15 C24        14.1110   23.1820    7.1760 C.3       1 4AH         0.0222
     16 C25        14.9730   22.3470    8.1180 C.ar      1 4AH        -0.0411
     17 C26        14.3750   21.2800    8.8770 C.ar      1 4AH        -0.0604
     18 C27        15.1730   20.4770    9.7450 C.ar      1 4AH        -0.0686
     19 C28        16.5770   20.7350    9.8590 C.ar      1 4AH        -0.0687
     20 C29        17.1780   21.7980    9.1060 C.ar      1 4AH        -0.0686
     21 C30        16.3810   22.6040    8.2360 C.ar      1 4AH        -0.0604
     22 O36        15.4120   23.7170    5.2220 O.3       1 4AH        -0.3781
     23 C41        13.0310   22.9480    4.7450 C.3       1 4AH         0.0334
     24 N42        12.0780   23.9550    4.3850 N.4       1 4AH         0.3816
     25 N43        11.4140   24.7110    5.3210 N.am      1 4AH        -0.2495
     26 C44        11.5480   23.4280    3.1080 C.3       1 4AH         0.0274
     27 C45        10.5400   24.4360    6.3090 C.2       1 4AH         0.2392
     28 O46        10.3620   23.2950    6.7660 O.2       1 4AH        -0.3898
     29 C47         9.7620   25.6600    6.8290 C.3       1 4AH         0.1419
     30 C48         9.6900   25.9050    8.3760 C.3       1 4AH         0.0027
     31 C49         8.9260   27.2100    8.7310 C.3       1 4AH        -0.0558
     32 C50        11.0770   26.0020    9.0310 C.3       1 4AH        -0.0558
     33 N51         8.3920   25.5860    6.2930 N.am      1 4AH        -0.2405
     34 C54         7.8210   26.4840    5.4740 C.2       1 4AH         0.3216
     35 O55         8.4670   27.4840    5.1070 O.2       1 4AH        -0.3774
     36 O56         6.5440   26.2540    5.0890 O.3       1 4AH        -0.2672
     37 C78        10.0340   23.4700    2.9970 C.ar      1 4AH         0.0040
     38 C79         9.4220   24.4510    2.1580 C.ar      1 4AH        -0.0530
     39 C80         7.9990   24.5180    2.0510 C.ar      1 4AH        -0.0582
     40 C81         7.1660   23.6030    2.7910 C.ar      1 4AH        -0.0170
     41 C82         9.2150   22.5500    3.7300 C.ar      1 4AH        -0.0530
     42 C83         7.7910   22.6170    3.6320 C.ar      1 4AH        -0.0582
     43 C91         5.8550   27.1580    4.2320 C.3       1 4AH         0.0663
     44 C92         8.9130   24.7670    9.0460 C.3       1 4AH        -0.0558
     45 C93         3.4210   22.8550    3.3400 C.ar      1 4AH        -0.0349
     46 C94         4.8410   22.7860    3.4320 C.ar      1 4AH        -0.0366
     47 C95         5.6770   23.6820    2.6840 C.ar      1 4AH         0.0053
     48 C96         5.0560   24.6540    1.8370 C.ar      1 4AH         0.0170
     49 N97         3.6370   24.7180    1.7470 N.ar      1 4AH        -0.2976
     50 C98         2.8160   23.8240    2.4950 C.ar      1 4AH         0.0098
     51 H1         16.5872   21.5825    5.1774 H         1 4AH         0.1887
     52 H2         15.3548   18.9563    5.5550 H         1 4AH         0.0734
     53 H3         14.5085   20.1906    2.6213 H         1 4AH         0.0538
     54 H4         14.8096   19.0489    0.3740 H         1 4AH         0.0541
     55 H5         16.5330   17.2430    0.0986 H         1 4AH         0.0541
     56 H6         17.9822   16.5415    2.0468 H         1 4AH         0.0537
     57 H7         18.8760   17.6030    4.5209 H         1 4AH         0.0439
     58 H8         17.4067   16.8456    5.2239 H         1 4AH         0.0439
     59 H9         17.5007   18.8461    6.6026 H         1 4AH         0.0659
     60 H10        18.4610   20.7323    5.6374 H         1 4AH         0.2103
     61 H11        13.0569   22.9847    7.4207 H         1 4AH         0.0443
     62 H12        14.3385   24.2420    7.3623 H         1 4AH         0.0443
     63 H13        13.3123   21.0856    8.7885 H         1 4AH         0.0557
     64 H14        14.7187   19.6752   10.3157 H         1 4AH         0.0599
     65 H15        17.1871   20.1256   10.5159 H         1 4AH         0.0559
     66 H16        18.2409   21.9905    9.1974 H         1 4AH         0.0599
     67 H17        16.8373   23.4062    7.6674 H         1 4AH         0.0557
     68 H18        15.2139   24.6322    5.3816 H         1 4AH         0.2083
     69 H19        12.4002   22.1616    5.1851 H         1 4AH         0.0838
     70 H20        13.4099   22.6108    3.7689 H         1 4AH         0.0838
     71 H21        12.6790   24.6893    4.0449 H         1 4AH         0.2321
     72 H22        11.6278   25.6856    5.2536 H         1 4AH         0.2383
     73 H23        11.8723   22.3819    3.0055 H         1 4AH         0.0993
     74 H24        11.9706   24.0251    2.2866 H         1 4AH         0.0993
     75 H25        10.2543   26.5456    6.4008 H         1 4AH         0.0806
     76 H26         8.9033   27.3359    9.8235 H         1 4AH         0.0237
     77 H27         7.8968   27.1482    8.3476 H         1 4AH         0.0237
     78 H28         9.4368   28.0700    8.2733 H         1 4AH         0.0237
     79 H29        11.6542   25.0936    8.8036 H         1 4AH         0.0237
     80 H30        10.9619   26.1002   10.1205 H         1 4AH         0.0237
     81 H31        11.6076   26.8816    8.6376 H         1 4AH         0.0237
     82 H32         7.8386   24.7979    6.5627 H         1 4AH         0.1899
     83 H33        10.0392   25.1466    1.6009 H         1 4AH         0.0564
     84 H34         7.5422   25.2622    1.4087 H         1 4AH         0.0617
     85 H35         9.6778   21.8002    4.3614 H         1 4AH         0.0564
     86 H36         7.1785   21.9214    4.1942 H         1 4AH         0.0617
     87 H37         4.8376   26.7835    4.0460 H         1 4AH         0.0575
     88 H38         6.3950   27.2420    3.2774 H         1 4AH         0.0575
     89 H39         5.7999   28.1470    4.7104 H         1 4AH         0.0575
     90 H40         7.9164   24.6842    8.5879 H         1 4AH         0.0237
     91 H41         8.8063   24.9785   10.1202 H         1 4AH         0.0237
     92 H42         9.4584   23.8213    8.9108 H         1 4AH         0.0237
     93 H43         2.8047   22.1711    3.9123 H         1 4AH         0.0706
     94 H44         5.2979   22.0446    4.0775 H         1 4AH         0.0731
     95 H45         5.6667   25.3420    1.2636 H         1 4AH         0.0822
     96 H46         1.7363   23.8832    2.4195 H         1 4AH         0.0812
@<TRIPOS>BOND
     1    1    2 1  
     2    1   15 1  
     3    1   22 1  
     4   23    1 1  
     5    2    3 2  
     6    2    4 am 
     7    4    5 1  
     8    5    6 1  
     9    5   13 1  
    10    6    7 ar 
    11    6   11 ar 
    12    7    8 ar 
    13    8    9 ar 
    14   10    9 ar 
    15   11   10 ar 
    16   12   11 1  
    17   13   12 1  
    18   13   14 1  
    19   15   16 1  
    20   16   17 ar 
    21   16   21 ar 
    22   17   18 ar 
    23   18   19 ar 
    24   20   19 ar 
    25   21   20 ar 
    26   24   23 1  
    27   24   25 1  
    28   26   24 1  
    29   25   27 am 
    30   37   26 1  
    31   27   28 2  
    32   27   29 1  
    33   29   30 1  
    34   29   33 1  
    35   30   31 1  
    36   30   32 1  
    37   30   44 1  
    38   33   34 am 
    39   34   35 2  
    40   34   36 1  
    41   36   43 1  
    42   38   37 ar 
    43   41   37 ar 
    44   39   38 ar 
    45   40   39 ar 
    46   40   42 ar 
    47   47   40 1  
    48   42   41 ar 
    49   46   45 ar 
    50   45   50 ar 
    51   46   47 ar 
    52   47   48 ar 
    53   48   49 ar 
    54   49   50 ar 
    55    4   51 1  
    56    5   52 1  
    57    7   53 1  
    58    8   54 1  
    59    9   55 1  
    60   10   56 1  
    61   12   57 1  
    62   12   58 1  
    63   13   59 1  
    64   14   60 1  
    65   15   61 1  
    66   15   62 1  
    67   17   63 1  
    68   18   64 1  
    69   19   65 1  
    70   20   66 1  
    71   21   67 1  
    72   22   68 1  
    73   23   69 1  
    74   23   70 1  
    75   24   71 1  
    76   25   72 1  
    77   26   73 1  
    78   26   74 1  
    79   29   75 1  
    80   31   76 1  
    81   31   77 1  
    82   31   78 1  
    83   32   79 1  
    84   32   80 1  
    85   32   81 1  
    86   33   82 1  
    87   38   83 1  
    88   39   84 1  
    89   41   85 1  
    90   42   86 1  
    91   43   87 1  
    92   43   88 1  
    93   43   89 1  
    94   44   90 1  
    95   44   91 1  
    96   44   92 1  
    97   45   93 1  
    98   46   94 1  
    99   48   95 1  
   100   50   96 1  
@<TRIPOS>SUBSTRUCTURE
     1 4AH         1

