### 
### Created by X-TOOL on Mon Sep 10 21:12:55 2018
### 

@<TRIPOS>MOLECULE
2ceo_ligand
   35    36     1     0     0
SMALL
GAST_HUCK


@<TRIPOS>ATOM
      1 C1         20.3330    1.9610  -20.5440 C.ar      1 T44        -0.0403
      2 C2         20.9890    1.3890  -21.6470 C.ar      1 T44        -0.0541
      3 C3         20.7500    1.8190  -22.9490 C.ar      1 T44         0.0381
      4 C4         19.7690    2.9010  -23.1510 C.ar      1 T44         0.1288
      5 C5         19.1010    3.4670  -21.9690 C.ar      1 T44         0.0381
      6 C6         19.3940    2.9850  -20.6950 C.ar      1 T44        -0.0541
      7 C7         20.6310    1.4450  -19.1540 C.3       1 T44         0.0324
      8 C8         21.8870    2.0740  -18.5500 C.3       1 T44         0.0365
      9 C9         23.0810    1.9650  -19.4750 C.2       1 T44         0.0864
     10 C1'        20.2890    4.3070  -25.0200 C.ar      1 T44         0.1107
     11 C2'        21.1700    5.1000  -24.2770 C.ar      1 T44        -0.0230
     12 C3'        22.0030    6.0320  -24.8920 C.ar      1 T44         0.0330
     13 C4'        21.9570    6.1870  -26.3600 C.ar      1 T44         0.0996
     14 C5'        21.0140    5.3290  -27.0940 C.ar      1 T44         0.0330
     15 C6'        20.2150    4.4180  -26.4110 C.ar      1 T44        -0.0230
     16 N8         21.6080    3.4510  -18.1730 N.4       1 T44         0.2340
     17 O4         19.4740    3.3900  -24.3960 O.3       1 T44        -0.2638
     18 O4'        22.7470    7.0750  -27.0270 O.3       1 T44        -0.3355
     19 O9         23.6410    3.0070  -19.8850 O.co2     1 T44        -0.5641
     20 O10        23.4890    0.8260  -19.8030 O.co2     1 T44        -0.5641
     21 I3         21.7160    0.9900  -24.6080 I         1 T44        -0.0570
     22 I3'        23.3190    7.2120  -23.7890 I         1 T44        -0.0586
     23 I5         17.7410    4.9890  -22.3520 I         1 T44        -0.0570
     24 I5'        20.9320    5.5350  -29.1550 I         1 T44        -0.0586
     25 H1         21.7018    0.5898  -21.4791 H         1 T44         0.0581
     26 H2         18.8968    3.4016  -19.8265 H         1 T44         0.0581
     27 H3         20.7726    0.3554  -19.2055 H         1 T44         0.0481
     28 H4         19.7746    1.6731  -18.5024 H         1 T44         0.0481
     29 H5         22.1330    1.5184  -17.6331 H         1 T44         0.1046
     30 H6         21.2052    4.9868  -23.1995 H         1 T44         0.0576
     31 H7         19.5278    3.7876  -26.9636 H         1 T44         0.0576
     32 H8         22.4365    3.8648  -17.7750 H         1 T44         0.2012
     33 H9         20.8637    3.4691  -17.4935 H         1 T44         0.2012
     34 H10        21.3306    3.9733  -18.9893 H         1 T44         0.2012
     35 H11        23.2906    7.5433  -26.4044 H         1 T44         0.2470
@<TRIPOS>BOND
     1    2    1 ar 
     2    6    1 ar 
     3    1    7 1  
     4    3    2 ar 
     5    4    3 ar 
     6    3   21 1  
     7    4    5 ar 
     8   17    4 1  
     9    5    6 ar 
    10    5   23 1  
    11    7    8 1  
    12    8    9 1  
    13    8   16 1  
    14    9   19 ar 
    15    9   20 ar 
    16   10   11 ar 
    17   10   15 ar 
    18   10   17 1  
    19   11   12 ar 
    20   12   13 ar 
    21   12   22 1  
    22   13   14 ar 
    23   13   18 1  
    24   14   15 ar 
    25   14   24 1  
    26    2   25 1  
    27    6   26 1  
    28    7   27 1  
    29    7   28 1  
    30    8   29 1  
    31   11   30 1  
    32   15   31 1  
    33   16   32 1  
    34   16   33 1  
    35   16   34 1  
    36   18   35 1  
@<TRIPOS>SUBSTRUCTURE
     1 T44         1

