### 
### Created by X-TOOL on Mon Sep 10 21:12:53 2018
### 

@<TRIPOS>MOLECULE
2ceq_ligand
   26    27     1     0     0
SMALL
GAST_HUCK


@<TRIPOS>ATOM
      1 C1        118.9130   38.7800   63.3850 C.2       1 GIM         0.1465
      2 C2        118.5790   37.6730   62.4380 C.3       1 GIM         0.1586
      3 N10       119.9260   39.6620   63.2380 N.pl3     1 GIM        -0.2404
      4 C3        119.5740   37.6740   61.2740 C.3       1 GIM         0.1253
      5 C4        119.9650   39.0960   60.8960 C.3       1 GIM         0.1183
      6 C5        120.8360   39.6450   62.0510 C.3       1 GIM         0.1196
      7 C6        121.4240   41.0210   61.7340 C.3       1 GIM         0.0773
      8 C7        118.8620   40.1580   65.0820 C.2       1 GIM        -0.0364
      9 C8        119.8950   40.5350   64.2560 C.2       1 GIM         0.0285
     10 N1        118.2650   39.0740   64.5300 N.2       1 GIM        -0.3367
     11 O3        118.9550   37.0080   60.1680 O.3       1 GIM        -0.3839
     12 O2        118.6610   36.3960   63.0810 O.3       1 GIM        -0.3699
     13 O4        120.6820   39.0350   59.6620 O.3       1 GIM        -0.3858
     14 O6        120.3640   41.9800   61.6180 O.3       1 GIM        -0.3918
     15 H1        117.5590   37.8243   62.0549 H         1 GIM         0.0858
     16 H2        120.4802   37.1248   61.5693 H         1 GIM         0.0675
     17 H3        119.0711   39.7250   60.7728 H         1 GIM         0.0654
     18 H4        121.6717   38.9554   62.2407 H         1 GIM         0.0704
     19 H5        121.9796   40.9725   60.7859 H         1 GIM         0.0589
     20 H6        122.1050   41.3237   62.5430 H         1 GIM         0.0589
     21 H7        118.5751   40.6439   66.0134 H         1 GIM         0.0408
     22 H8        120.5625   41.3831   64.4012 H         1 GIM         0.0796
     23 H9        119.5627   36.9762   59.4386 H         1 GIM         0.2103
     24 H10       119.5449   36.2603   63.4015 H         1 GIM         0.2138
     25 H11       120.9743   39.9069   59.4234 H         1 GIM         0.2100
     26 H12       119.7764   41.7179   60.9190 H         1 GIM         0.2095
@<TRIPOS>BOND
     1    1    2 1  
     2    1    3 1  
     3    1   10 2  
     4    2    4 1  
     5    2   12 1  
     6    3    6 1  
     7    3    9 1  
     8    4    5 1  
     9    4   11 1  
    10    5    6 1  
    11    5   13 1  
    12    6    7 1  
    13    7   14 1  
    14    9    8 2  
    15    8   10 1  
    16    2   15 1  
    17    4   16 1  
    18    5   17 1  
    19    6   18 1  
    20    7   19 1  
    21    7   20 1  
    22    8   21 1  
    23    9   22 1  
    24   11   23 1  
    25   12   24 1  
    26   13   25 1  
    27   14   26 1  
@<TRIPOS>SUBSTRUCTURE
     1 GIM         1

